4D6


 23 24  0  0  0  0  0  0  0  0999 V2000
   15.2593    7.5579   27.2239 C   0  0  0  0  0  0  0  0  0  0  0  0
   15.3908    6.0334   27.2971 C   0  0  0  0  0  0  0  0  0  0  0  0
   14.0021    5.3953   27.3507 C   0  0  0  0  0  0  0  0  0  0  0  0
   13.3334    5.7964   28.5506 O   0  0  0  0  0  0  0  0  0  0  0  0
   13.2404    7.2143   28.6862 B   0  0  0  0  0  0  0  0  0  0  0  0
   12.0027    7.8441   28.9837 O   0  0  0  0  0  0  0  0  0  0  0  0
   14.5602    8.0571   28.4953 C   0  0  0  0  0  0  0  0  0  0  0  0
   11.2621    7.2302   29.0795 H   0  0  0  0  0  0  0  0  0  0  0  0
   15.9987    8.9373   30.2545 C   0  0  0  0  0  0  0  0  0  0  0  0
   15.4398    7.8692   29.6512 N   0  0  0  0  0  0  0  0  0  0  0  0
   15.7730   10.0546   29.8397 O   0  0  0  0  0  0  0  0  0  0  0  0
   15.6209    6.9750   29.9832 H   0  0  0  0  0  0  0  0  0  0  0  0
   16.9035    8.7438   31.4439 C   0  0  0  0  0  0  0  0  0  0  0  0
   19.7274    6.1178   30.3812 C   0  0  0  0  0  0  0  0  0  0  0  0
   17.8929    7.6460   31.1490 C   0  0  0  0  0  0  0  0  0  0  0  0
   18.8789    5.5797   31.2590 C   0  0  0  0  0  0  0  0  0  0  0  0
   19.2560    7.7779   30.0461 S   0  0  0  0  0  0  0  0  0  0  0  0
   17.8634    6.4221   31.6789 C   0  0  0  0  0  0  0  0  0  0  0  0
   14.1414    3.8718   27.3288 C   0  0  0  0  0  0  0  0  0  0  0  0
   12.7062    2.5813   28.6808 O   0  0  0  0  0  0  0  0  0  0  0  0
   13.6733    3.3060   28.6446 C   0  0  0  0  0  0  0  0  0  0  0  0
   14.3296    3.6064   29.7756 O   0  0  0  0  0  0  0  0  0  0  0  0
   13.9920    3.2192   30.5953 H   0  0  0  0  0  0  0  0  0  0  0  0
 20 21  2  0  0  0
 19 21  1  0  0  0
 21 22  1  0  0  0
  3 19  1  0  0  0
  2  3  1  0  0  0
  3  4  1  0  0  0
  1  2  1  0  0  0
  4  5  1  0  0  0
  1  7  1  0  0  0
  5  6  1  0  0  0
  5  7  1  0  0  0
  7 10  1  0  0  0
  9 10  1  0  0  0
  9 11  2  0  0  0
 14 17  1  0  0  0
 15 17  1  0  0  0
  9 13  1  0  0  0
 14 16  2  0  0  0
 15 13  1  0  0  0
 15 18  2  0  0  0
 16 18  1  0  0  0
 22 23  1  0  0  0
  6  8  1  0  0  0
 10 12  1  0  0  0
M  END
> <OPENEYE_ISO_SMILES>
B1([C@H](CC[C@H](O1)CC(=O)O)NC(=O)Cc2cccs2)O

> <OPENEYE_INCHI>
InChI=1S/C12H16BNO5S/c15-11(7-9-2-1-5-20-9)14-10-4-3-8(6-12(16)17)19-13(10)18/h1-2,5,8,10,18H,3-4,6-7H2,(H,14,15)(H,16,17)/t8-,10-/m0/s1

> <OPENEYE_INCHIKEY>
IOOWNWLVCOUUEX-WPRPVWTQSA-N

> <FORMULA>
C12H16BNO5S

> <minimizedAffinity>
-6.65551

> <CNNscore>
0.6825470328

> <CNNaffinity>
5.6105999947

> <CNN_VS>
3.8294982910

> <CNNaffinity_variance>
0.5741378069

$$$$
4D6


 23 24  0  0  0  0  0  0  0  0999 V2000
   16.2589    5.0659   27.0899 C   0  0  0  0  0  0  0  0  0  0  0  0
   16.2255    3.8430   28.0119 C   0  0  0  0  0  0  0  0  0  0  0  0
   15.0134    2.9733   27.6758 C   0  0  0  0  0  0  0  0  0  0  0  0
   13.8100    3.7026   27.9361 O   0  0  0  0  0  0  0  0  0  0  0  0
   13.7495    4.9426   27.2315 B   0  0  0  0  0  0  0  0  0  0  0  0
   12.6060    5.2988   26.4682 O   0  0  0  0  0  0  0  0  0  0  0  0
   14.9964    5.9039   27.3313 C   0  0  0  0  0  0  0  0  0  0  0  0
   11.9036    4.6347   26.4791 H   0  0  0  0  0  0  0  0  0  0  0  0
   15.6457    7.7060   28.8378 C   0  0  0  0  0  0  0  0  0  0  0  0
   15.0503    6.5091   28.6639 N   0  0  0  0  0  0  0  0  0  0  0  0
   16.1373    8.2817   27.8901 O   0  0  0  0  0  0  0  0  0  0  0  0
   14.6572    6.0484   29.4227 H   0  0  0  0  0  0  0  0  0  0  0  0
   15.7008    8.3287   30.2089 C   0  0  0  0  0  0  0  0  0  0  0  0
   19.1833    7.6824   32.0675 C   0  0  0  0  0  0  0  0  0  0  0  0
   16.9791    7.9207   30.8948 C   0  0  0  0  0  0  0  0  0  0  0  0
   18.5843    6.5309   31.7585 C   0  0  0  0  0  0  0  0  0  0  0  0
   18.1890    9.0282   31.5283 S   0  0  0  0  0  0  0  0  0  0  0  0
   17.3698    6.6628   31.1068 C   0  0  0  0  0  0  0  0  0  0  0  0
   15.0404    1.7089   28.5368 C   0  0  0  0  0  0  0  0  0  0  0  0
   13.1271    0.5014   27.8778 O   0  0  0  0  0  0  0  0  0  0  0  0
   13.6348    1.1993   28.7245 C   0  0  0  0  0  0  0  0  0  0  0  0
   12.9469    1.5202   29.8308 O   0  0  0  0  0  0  0  0  0  0  0  0
   12.0486    1.1692   29.9066 H   0  0  0  0  0  0  0  0  0  0  0  0
 20 21  2  0  0  0
 19 21  1  0  0  0
 21 22  1  0  0  0
  3 19  1  0  0  0
  2  3  1  0  0  0
  3  4  1  0  0  0
  1  2  1  0  0  0
  4  5  1  0  0  0
  1  7  1  0  0  0
  5  6  1  0  0  0
  5  7  1  0  0  0
  7 10  1  0  0  0
  9 10  1  0  0  0
  9 11  2  0  0  0
 14 17  1  0  0  0
 15 17  1  0  0  0
  9 13  1  0  0  0
 14 16  2  0  0  0
 15 13  1  0  0  0
 15 18  2  0  0  0
 16 18  1  0  0  0
 22 23  1  0  0  0
  6  8  1  0  0  0
 10 12  1  0  0  0
M  END
> <OPENEYE_ISO_SMILES>
B1([C@H](CC[C@H](O1)CC(=O)O)NC(=O)Cc2cccs2)O

> <OPENEYE_INCHI>
InChI=1S/C12H16BNO5S/c15-11(7-9-2-1-5-20-9)14-10-4-3-8(6-12(16)17)19-13(10)18/h1-2,5,8,10,18H,3-4,6-7H2,(H,14,15)(H,16,17)/t8-,10-/m0/s1

> <OPENEYE_INCHIKEY>
IOOWNWLVCOUUEX-WPRPVWTQSA-N

> <FORMULA>
C12H16BNO5S

> <minimizedAffinity>
-6.46350

> <CNNscore>
0.6481749415

> <CNNaffinity>
5.1926565170

> <CNN_VS>
3.3657498360

> <CNNaffinity_variance>
0.2086208165

$$$$
4D6


 23 24  0  0  0  0  0  0  0  0999 V2000
   13.6745    5.8306   26.1708 C   0  0  0  0  0  0  0  0  0  0  0  0
   14.3702    4.7683   27.0277 C   0  0  0  0  0  0  0  0  0  0  0  0
   13.5481    4.4997   28.2888 C   0  0  0  0  0  0  0  0  0  0  0  0
   13.4923    5.6846   29.0893 O   0  0  0  0  0  0  0  0  0  0  0  0
   12.9718    6.8089   28.3802 B   0  0  0  0  0  0  0  0  0  0  0  0
   11.9292    7.6035   28.9267 O   0  0  0  0  0  0  0  0  0  0  0  0
   13.5956    7.1385   26.9693 C   0  0  0  0  0  0  0  0  0  0  0  0
   11.6248    7.3092   29.7958 H   0  0  0  0  0  0  0  0  0  0  0  0
   15.0925    8.9916   27.4832 C   0  0  0  0  0  0  0  0  0  0  0  0
   14.9387    7.6972   27.1395 N   0  0  0  0  0  0  0  0  0  0  0  0
   14.1179    9.6940   27.6512 O   0  0  0  0  0  0  0  0  0  0  0  0
   15.7189    7.1354   27.0048 H   0  0  0  0  0  0  0  0  0  0  0  0
   16.4745    9.5663   27.6586 C   0  0  0  0  0  0  0  0  0  0  0  0
   16.8435   10.2039   31.5901 C   0  0  0  0  0  0  0  0  0  0  0  0
   16.6763    9.9577   29.0997 C   0  0  0  0  0  0  0  0  0  0  0  0
   17.2573   11.2630   30.8921 C   0  0  0  0  0  0  0  0  0  0  0  0
   16.3003    8.9464   30.4882 S   0  0  0  0  0  0  0  0  0  0  0  0
   17.1603   11.1286   29.5175 C   0  0  0  0  0  0  0  0  0  0  0  0
   14.2010    3.3722   29.0909 C   0  0  0  0  0  0  0  0  0  0  0  0
   12.0960    2.3464   28.8261 O   0  0  0  0  0  0  0  0  0  0  0  0
   13.2259    2.2332   29.2412 C   0  0  0  0  0  0  0  0  0  0  0  0
   13.6116    1.0938   29.8355 O   0  0  0  0  0  0  0  0  0  0  0  0
   12.9507    0.3911   29.9086 H   0  0  0  0  0  0  0  0  0  0  0  0
 20 21  2  0  0  0
 19 21  1  0  0  0
 21 22  1  0  0  0
  3 19  1  0  0  0
  2  3  1  0  0  0
  3  4  1  0  0  0
  1  2  1  0  0  0
  4  5  1  0  0  0
  1  7  1  0  0  0
  5  6  1  0  0  0
  5  7  1  0  0  0
  7 10  1  0  0  0
  9 10  1  0  0  0
  9 11  2  0  0  0
 14 17  1  0  0  0
 15 17  1  0  0  0
  9 13  1  0  0  0
 14 16  2  0  0  0
 15 13  1  0  0  0
 15 18  2  0  0  0
 16 18  1  0  0  0
 22 23  1  0  0  0
  6  8  1  0  0  0
 10 12  1  0  0  0
M  END
> <OPENEYE_ISO_SMILES>
B1([C@H](CC[C@H](O1)CC(=O)O)NC(=O)Cc2cccs2)O

> <OPENEYE_INCHI>
InChI=1S/C12H16BNO5S/c15-11(7-9-2-1-5-20-9)14-10-4-3-8(6-12(16)17)19-13(10)18/h1-2,5,8,10,18H,3-4,6-7H2,(H,14,15)(H,16,17)/t8-,10-/m0/s1

> <OPENEYE_INCHIKEY>
IOOWNWLVCOUUEX-WPRPVWTQSA-N

> <FORMULA>
C12H16BNO5S

> <minimizedAffinity>
-7.21061

> <CNNscore>
0.6062222123

> <CNNaffinity>
5.5111541748

> <CNN_VS>
3.3409841061

> <CNNaffinity_variance>
0.4243826270

$$$$
4D6


 23 24  0  0  0  0  0  0  0  0999 V2000
   16.1636    3.3398   25.6861 C   0  0  0  0  0  0  0  0  0  0  0  0
   15.1652    2.2498   26.0882 C   0  0  0  0  0  0  0  0  0  0  0  0
   15.2251    2.0238   27.5994 C   0  0  0  0  0  0  0  0  0  0  0  0
   16.5196    1.5330   27.9623 O   0  0  0  0  0  0  0  0  0  0  0  0
   17.5772    2.3939   27.5406 B   0  0  0  0  0  0  0  0  0  0  0  0
   18.5914    2.8084   28.4443 O   0  0  0  0  0  0  0  0  0  0  0  0
   17.5811    2.8677   26.0359 C   0  0  0  0  0  0  0  0  0  0  0  0
   18.4885    2.4570   29.3390 H   0  0  0  0  0  0  0  0  0  0  0  0
   18.7466    1.9710   24.0927 C   0  0  0  0  0  0  0  0  0  0  0  0
   17.9609    1.7523   25.1661 N   0  0  0  0  0  0  0  0  0  0  0  0
   19.1389    3.0922   23.8471 O   0  0  0  0  0  0  0  0  0  0  0  0
   17.6468    0.8549   25.3621 H   0  0  0  0  0  0  0  0  0  0  0  0
   19.1376    0.8233   23.1979 C   0  0  0  0  0  0  0  0  0  0  0  0
   16.0589   -1.5688   22.3038 C   0  0  0  0  0  0  0  0  0  0  0  0
   17.9037    0.0581   22.7945 C   0  0  0  0  0  0  0  0  0  0  0  0
   15.8319   -0.3209   21.8898 C   0  0  0  0  0  0  0  0  0  0  0  0
   17.6328   -1.6553   23.0823 S   0  0  0  0  0  0  0  0  0  0  0  0
   16.8527    0.5759   22.1565 C   0  0  0  0  0  0  0  0  0  0  0  0
   14.1603    1.0022   28.0034 C   0  0  0  0  0  0  0  0  0  0  0  0
   11.9194    1.4250   28.5970 O   0  0  0  0  0  0  0  0  0  0  0  0
   13.0815    1.6897   28.7997 C   0  0  0  0  0  0  0  0  0  0  0  0
   13.4106    2.5955   29.7331 O   0  0  0  0  0  0  0  0  0  0  0  0
   12.6836    3.0099   30.2186 H   0  0  0  0  0  0  0  0  0  0  0  0
 20 21  2  0  0  0
 19 21  1  0  0  0
 21 22  1  0  0  0
  3 19  1  0  0  0
  2  3  1  0  0  0
  3  4  1  0  0  0
  1  2  1  0  0  0
  4  5  1  0  0  0
  1  7  1  0  0  0
  5  6  1  0  0  0
  5  7  1  0  0  0
  7 10  1  0  0  0
  9 10  1  0  0  0
  9 11  2  0  0  0
 14 17  1  0  0  0
 15 17  1  0  0  0
  9 13  1  0  0  0
 14 16  2  0  0  0
 15 13  1  0  0  0
 15 18  2  0  0  0
 16 18  1  0  0  0
 22 23  1  0  0  0
  6  8  1  0  0  0
 10 12  1  0  0  0
M  END
> <OPENEYE_ISO_SMILES>
B1([C@H](CC[C@H](O1)CC(=O)O)NC(=O)Cc2cccs2)O

> <OPENEYE_INCHI>
InChI=1S/C12H16BNO5S/c15-11(7-9-2-1-5-20-9)14-10-4-3-8(6-12(16)17)19-13(10)18/h1-2,5,8,10,18H,3-4,6-7H2,(H,14,15)(H,16,17)/t8-,10-/m0/s1

> <OPENEYE_INCHIKEY>
IOOWNWLVCOUUEX-WPRPVWTQSA-N

> <FORMULA>
C12H16BNO5S

> <minimizedAffinity>
-4.66955

> <CNNscore>
0.5584405661

> <CNNaffinity>
4.3589544296

> <CNN_VS>
2.4342169762

> <CNNaffinity_variance>
0.1068056002

$$$$
4D6


 23 24  0  0  0  0  0  0  0  0999 V2000
   14.4994    3.7435   26.5398 C   0  0  0  0  0  0  0  0  0  0  0  0
   15.4500    2.6153   26.9521 C   0  0  0  0  0  0  0  0  0  0  0  0
   14.8747    1.8662   28.1548 C   0  0  0  0  0  0  0  0  0  0  0  0
   14.7922    2.7492   29.2780 O   0  0  0  0  0  0  0  0  0  0  0  0
   14.0281    3.9236   29.0051 B   0  0  0  0  0  0  0  0  0  0  0  0
   12.9896    4.3437   29.8782 O   0  0  0  0  0  0  0  0  0  0  0  0
   14.3781    4.7393   27.7009 C   0  0  0  0  0  0  0  0  0  0  0  0
   12.8640    3.7686   30.6451 H   0  0  0  0  0  0  0  0  0  0  0  0
   15.7492    6.7487   27.5560 C   0  0  0  0  0  0  0  0  0  0  0  0
   15.6484    5.4449   27.8836 N   0  0  0  0  0  0  0  0  0  0  0  0
   14.7872    7.3375   27.1095 O   0  0  0  0  0  0  0  0  0  0  0  0
   16.4185    4.9739   28.2407 H   0  0  0  0  0  0  0  0  0  0  0  0
   17.0561    7.4747   27.7443 C   0  0  0  0  0  0  0  0  0  0  0  0
   18.0271    7.1461   31.6107 C   0  0  0  0  0  0  0  0  0  0  0  0
   17.5531    7.2578   29.1503 C   0  0  0  0  0  0  0  0  0  0  0  0
   18.9058    6.5028   30.8397 C   0  0  0  0  0  0  0  0  0  0  0  0
   16.7875    7.8825   30.6049 S   0  0  0  0  0  0  0  0  0  0  0  0
   18.6465    6.5689   29.4812 C   0  0  0  0  0  0  0  0  0  0  0  0
   15.7834    0.6847   28.5001 C   0  0  0  0  0  0  0  0  0  0  0  0
   15.5312   -1.3065   29.7348 O   0  0  0  0  0  0  0  0  0  0  0  0
   15.0918   -0.2048   29.5007 C   0  0  0  0  0  0  0  0  0  0  0  0
   13.9888    0.2258   30.1316 O   0  0  0  0  0  0  0  0  0  0  0  0
   13.5803   -0.3804   30.7652 H   0  0  0  0  0  0  0  0  0  0  0  0
 20 21  2  0  0  0
 19 21  1  0  0  0
 21 22  1  0  0  0
  3 19  1  0  0  0
  2  3  1  0  0  0
  3  4  1  0  0  0
  1  2  1  0  0  0
  4  5  1  0  0  0
  1  7  1  0  0  0
  5  6  1  0  0  0
  5  7  1  0  0  0
  7 10  1  0  0  0
  9 10  1  0  0  0
  9 11  2  0  0  0
 14 17  1  0  0  0
 15 17  1  0  0  0
  9 13  1  0  0  0
 14 16  2  0  0  0
 15 13  1  0  0  0
 15 18  2  0  0  0
 16 18  1  0  0  0
 22 23  1  0  0  0
  6  8  1  0  0  0
 10 12  1  0  0  0
M  END
> <OPENEYE_ISO_SMILES>
B1([C@H](CC[C@H](O1)CC(=O)O)NC(=O)Cc2cccs2)O

> <OPENEYE_INCHI>
InChI=1S/C12H16BNO5S/c15-11(7-9-2-1-5-20-9)14-10-4-3-8(6-12(16)17)19-13(10)18/h1-2,5,8,10,18H,3-4,6-7H2,(H,14,15)(H,16,17)/t8-,10-/m0/s1

> <OPENEYE_INCHIKEY>
IOOWNWLVCOUUEX-WPRPVWTQSA-N

> <FORMULA>
C12H16BNO5S

> <minimizedAffinity>
-5.48317

> <CNNscore>
0.5378250480

> <CNNaffinity>
5.1254315376

> <CNN_VS>
2.7565853596

> <CNNaffinity_variance>
0.1477941126

$$$$
4D6


 23 24  0  0  0  0  0  0  0  0999 V2000
   14.7335    5.4722   26.4830 C   0  0  0  0  0  0  0  0  0  0  0  0
   15.0741    4.0429   26.9163 C   0  0  0  0  0  0  0  0  0  0  0  0
   13.9908    3.5143   27.8572 C   0  0  0  0  0  0  0  0  0  0  0  0
   13.9668    4.2991   29.0537 O   0  0  0  0  0  0  0  0  0  0  0  0
   13.7768    5.6910   28.8002 B   0  0  0  0  0  0  0  0  0  0  0  0
   12.7855    6.4352   29.4934 O   0  0  0  0  0  0  0  0  0  0  0  0
   14.7068    6.3738   27.7243 C   0  0  0  0  0  0  0  0  0  0  0  0
   12.2757    5.9147   30.1288 H   0  0  0  0  0  0  0  0  0  0  0  0
   16.3218    7.4583   29.1921 C   0  0  0  0  0  0  0  0  0  0  0  0
   16.0618    6.5188   28.2609 N   0  0  0  0  0  0  0  0  0  0  0  0
   15.4330    8.1839   29.5855 O   0  0  0  0  0  0  0  0  0  0  0  0
   16.7734    5.9384   27.9460 H   0  0  0  0  0  0  0  0  0  0  0  0
   17.7159    7.6072   29.7444 C   0  0  0  0  0  0  0  0  0  0  0  0
   19.7519    9.7526   27.0514 C   0  0  0  0  0  0  0  0  0  0  0  0
   18.5910    8.2862   28.7225 C   0  0  0  0  0  0  0  0  0  0  0  0
   20.3349    8.5711   27.2626 C   0  0  0  0  0  0  0  0  0  0  0  0
   18.3132    9.8881   28.0526 S   0  0  0  0  0  0  0  0  0  0  0  0
   19.6910    7.7599   28.1815 C   0  0  0  0  0  0  0  0  0  0  0  0
   14.2905    2.0559   28.2094 C   0  0  0  0  0  0  0  0  0  0  0  0
   13.5569    0.8663   30.1067 O   0  0  0  0  0  0  0  0  0  0  0  0
   13.2371    1.5414   29.1561 C   0  0  0  0  0  0  0  0  0  0  0  0
   11.9446    1.8323   28.9439 O   0  0  0  0  0  0  0  0  0  0  0  0
   11.3052    1.4799   29.5787 H   0  0  0  0  0  0  0  0  0  0  0  0
 20 21  2  0  0  0
 19 21  1  0  0  0
 21 22  1  0  0  0
  3 19  1  0  0  0
  2  3  1  0  0  0
  3  4  1  0  0  0
  1  2  1  0  0  0
  4  5  1  0  0  0
  1  7  1  0  0  0
  5  6  1  0  0  0
  5  7  1  0  0  0
  7 10  1  0  0  0
  9 10  1  0  0  0
  9 11  2  0  0  0
 14 17  1  0  0  0
 15 17  1  0  0  0
  9 13  1  0  0  0
 14 16  2  0  0  0
 15 13  1  0  0  0
 15 18  2  0  0  0
 16 18  1  0  0  0
 22 23  1  0  0  0
  6  8  1  0  0  0
 10 12  1  0  0  0
M  END
> <OPENEYE_ISO_SMILES>
B1([C@H](CC[C@H](O1)CC(=O)O)NC(=O)Cc2cccs2)O

> <OPENEYE_INCHI>
InChI=1S/C12H16BNO5S/c15-11(7-9-2-1-5-20-9)14-10-4-3-8(6-12(16)17)19-13(10)18/h1-2,5,8,10,18H,3-4,6-7H2,(H,14,15)(H,16,17)/t8-,10-/m0/s1

> <OPENEYE_INCHIKEY>
IOOWNWLVCOUUEX-WPRPVWTQSA-N

> <FORMULA>
C12H16BNO5S

> <minimizedAffinity>
-5.82218

> <CNNscore>
0.4776269197

> <CNNaffinity>
5.1329131126

> <CNN_VS>
2.4516174793

> <CNNaffinity_variance>
0.4426930547

$$$$
4D6


 23 24  0  0  0  0  0  0  0  0999 V2000
   16.1543    5.1523   26.5771 C   0  0  0  0  0  0  0  0  0  0  0  0
   15.9271    3.8426   27.3385 C   0  0  0  0  0  0  0  0  0  0  0  0
   14.5376    3.2906   27.0174 C   0  0  0  0  0  0  0  0  0  0  0  0
   13.5375    4.2019   27.4833 O   0  0  0  0  0  0  0  0  0  0  0  0
   13.6921    5.5161   26.9480 B   0  0  0  0  0  0  0  0  0  0  0  0
   12.5994    6.1993   26.3509 O   0  0  0  0  0  0  0  0  0  0  0  0
   15.1182    6.1835   27.0437 C   0  0  0  0  0  0  0  0  0  0  0  0
   11.7746    5.6949   26.3479 H   0  0  0  0  0  0  0  0  0  0  0  0
   15.3121    7.8642   28.7977 C   0  0  0  0  0  0  0  0  0  0  0  0
   15.3927    6.5699   28.4295 N   0  0  0  0  0  0  0  0  0  0  0  0
   15.0124    8.7092   27.9806 O   0  0  0  0  0  0  0  0  0  0  0  0
   15.6329    5.8939   29.0835 H   0  0  0  0  0  0  0  0  0  0  0  0
   15.5941    8.2617   30.2236 C   0  0  0  0  0  0  0  0  0  0  0  0
   18.5889   10.9104   30.0987 C   0  0  0  0  0  0  0  0  0  0  0  0
   16.6145    9.3705   30.2434 C   0  0  0  0  0  0  0  0  0  0  0  0
   17.4881   11.4560   30.6192 C   0  0  0  0  0  0  0  0  0  0  0  0
   18.2726    9.2340   29.6742 S   0  0  0  0  0  0  0  0  0  0  0  0
   16.3998   10.6042   30.7035 C   0  0  0  0  0  0  0  0  0  0  0  0
   14.3562    1.9372   27.7075 C   0  0  0  0  0  0  0  0  0  0  0  0
   12.2557    1.4168   28.6402 O   0  0  0  0  0  0  0  0  0  0  0  0
   13.2799    2.0486   28.7562 C   0  0  0  0  0  0  0  0  0  0  0  0
   13.4581    2.8489   29.8181 O   0  0  0  0  0  0  0  0  0  0  0  0
   12.7395    2.8874   30.4647 H   0  0  0  0  0  0  0  0  0  0  0  0
 20 21  2  0  0  0
 19 21  1  0  0  0
 21 22  1  0  0  0
  3 19  1  0  0  0
  2  3  1  0  0  0
  3  4  1  0  0  0
  1  2  1  0  0  0
  4  5  1  0  0  0
  1  7  1  0  0  0
  5  6  1  0  0  0
  5  7  1  0  0  0
  7 10  1  0  0  0
  9 10  1  0  0  0
  9 11  2  0  0  0
 14 17  1  0  0  0
 15 17  1  0  0  0
  9 13  1  0  0  0
 14 16  2  0  0  0
 15 13  1  0  0  0
 15 18  2  0  0  0
 16 18  1  0  0  0
 22 23  1  0  0  0
  6  8  1  0  0  0
 10 12  1  0  0  0
M  END
> <OPENEYE_ISO_SMILES>
B1([C@H](CC[C@H](O1)CC(=O)O)NC(=O)Cc2cccs2)O

> <OPENEYE_INCHI>
InChI=1S/C12H16BNO5S/c15-11(7-9-2-1-5-20-9)14-10-4-3-8(6-12(16)17)19-13(10)18/h1-2,5,8,10,18H,3-4,6-7H2,(H,14,15)(H,16,17)/t8-,10-/m0/s1

> <OPENEYE_INCHIKEY>
IOOWNWLVCOUUEX-WPRPVWTQSA-N

> <FORMULA>
C12H16BNO5S

> <minimizedAffinity>
-6.67288

> <CNNscore>
0.4379891455

> <CNNaffinity>
4.9951224327

> <CNN_VS>
2.1878094673

> <CNNaffinity_variance>
0.2203453779

$$$$
4D6


 23 24  0  0  0  0  0  0  0  0999 V2000
   15.1418    5.0683   25.8875 C   0  0  0  0  0  0  0  0  0  0  0  0
   15.2812    4.3320   27.2235 C   0  0  0  0  0  0  0  0  0  0  0  0
   13.9214    4.2580   27.9190 C   0  0  0  0  0  0  0  0  0  0  0  0
   13.4699    5.5784   28.2361 O   0  0  0  0  0  0  0  0  0  0  0  0
   13.4040    6.4314   27.0934 B   0  0  0  0  0  0  0  0  0  0  0  0
   12.2371    7.1892   26.8087 O   0  0  0  0  0  0  0  0  0  0  0  0
   14.6728    6.5039   26.1588 C   0  0  0  0  0  0  0  0  0  0  0  0
   11.5229    7.0669   27.4487 H   0  0  0  0  0  0  0  0  0  0  0  0
   15.8051    8.5952   26.6909 C   0  0  0  0  0  0  0  0  0  0  0  0
   15.7378    7.2556   26.8263 N   0  0  0  0  0  0  0  0  0  0  0  0
   14.9831    9.1781   26.0156 O   0  0  0  0  0  0  0  0  0  0  0  0
   16.3960    6.7894   27.3665 H   0  0  0  0  0  0  0  0  0  0  0  0
   16.9007    9.3686   27.3779 C   0  0  0  0  0  0  0  0  0  0  0  0
   17.3074    8.2368   31.1928 C   0  0  0  0  0  0  0  0  0  0  0  0
   16.9117    9.0275   28.8458 C   0  0  0  0  0  0  0  0  0  0  0  0
   16.2062    8.9715   31.0259 C   0  0  0  0  0  0  0  0  0  0  0  0
   18.1405    8.0641   29.6545 S   0  0  0  0  0  0  0  0  0  0  0  0
   15.9855    9.4036   29.7291 C   0  0  0  0  0  0  0  0  0  0  0  0
   14.0521    3.4406   29.2057 C   0  0  0  0  0  0  0  0  0  0  0  0
   12.9691    1.4792   29.9356 O   0  0  0  0  0  0  0  0  0  0  0  0
   13.4438    2.0776   28.9985 C   0  0  0  0  0  0  0  0  0  0  0  0
   13.4292    1.5284   27.7745 O   0  0  0  0  0  0  0  0  0  0  0  0
   13.0277    0.6522   27.6910 H   0  0  0  0  0  0  0  0  0  0  0  0
 20 21  2  0  0  0
 19 21  1  0  0  0
 21 22  1  0  0  0
  3 19  1  0  0  0
  2  3  1  0  0  0
  3  4  1  0  0  0
  1  2  1  0  0  0
  4  5  1  0  0  0
  1  7  1  0  0  0
  5  6  1  0  0  0
  5  7  1  0  0  0
  7 10  1  0  0  0
  9 10  1  0  0  0
  9 11  2  0  0  0
 14 17  1  0  0  0
 15 17  1  0  0  0
  9 13  1  0  0  0
 14 16  2  0  0  0
 15 13  1  0  0  0
 15 18  2  0  0  0
 16 18  1  0  0  0
 22 23  1  0  0  0
  6  8  1  0  0  0
 10 12  1  0  0  0
M  END
> <OPENEYE_ISO_SMILES>
B1([C@H](CC[C@H](O1)CC(=O)O)NC(=O)Cc2cccs2)O

> <OPENEYE_INCHI>
InChI=1S/C12H16BNO5S/c15-11(7-9-2-1-5-20-9)14-10-4-3-8(6-12(16)17)19-13(10)18/h1-2,5,8,10,18H,3-4,6-7H2,(H,14,15)(H,16,17)/t8-,10-/m0/s1

> <OPENEYE_INCHIKEY>
IOOWNWLVCOUUEX-WPRPVWTQSA-N

> <FORMULA>
C12H16BNO5S

> <minimizedAffinity>
-6.68698

> <CNNscore>
0.4281977117

> <CNNaffinity>
4.9547514915

> <CNN_VS>
2.1216132641

> <CNNaffinity_variance>
0.3093762994

$$$$
4D6


 23 24  0  0  0  0  0  0  0  0999 V2000
   15.8190    5.1941   26.7285 C   0  0  0  0  0  0  0  0  0  0  0  0
   15.3393    4.6472   28.0766 C   0  0  0  0  0  0  0  0  0  0  0  0
   13.8417    4.3449   28.0101 C   0  0  0  0  0  0  0  0  0  0  0  0
   13.1147    5.5577   27.7897 O   0  0  0  0  0  0  0  0  0  0  0  0
   13.5393    6.2537   26.6181 B   0  0  0  0  0  0  0  0  0  0  0  0
   12.6020    6.7009   25.6492 O   0  0  0  0  0  0  0  0  0  0  0  0
   15.0854    6.5100   26.4375 C   0  0  0  0  0  0  0  0  0  0  0  0
   11.6835    6.4893   25.8637 H   0  0  0  0  0  0  0  0  0  0  0  0
   15.5867    8.8316   26.9833 C   0  0  0  0  0  0  0  0  0  0  0  0
   15.5294    7.5432   27.3758 N   0  0  0  0  0  0  0  0  0  0  0  0
   15.2705    9.1351   25.8522 O   0  0  0  0  0  0  0  0  0  0  0  0
   15.7828    7.3005   28.2810 H   0  0  0  0  0  0  0  0  0  0  0  0
   16.0433    9.8945   27.9489 C   0  0  0  0  0  0  0  0  0  0  0  0
   19.5354   11.5339   26.8918 C   0  0  0  0  0  0  0  0  0  0  0  0
   17.4256   10.3584   27.5683 C   0  0  0  0  0  0  0  0  0  0  0  0
   19.6690   10.2255   27.1168 C   0  0  0  0  0  0  0  0  0  0  0  0
   17.8638   12.0104   27.1550 S   0  0  0  0  0  0  0  0  0  0  0  0
   18.5031    9.5760   27.4854 C   0  0  0  0  0  0  0  0  0  0  0  0
   13.3916    3.7124   29.3284 C   0  0  0  0  0  0  0  0  0  0  0  0
   14.1950    1.4972   29.3009 O   0  0  0  0  0  0  0  0  0  0  0  0
   13.2415    2.2241   29.1457 C   0  0  0  0  0  0  0  0  0  0  0  0
   12.0501    1.7061   28.8108 O   0  0  0  0  0  0  0  0  0  0  0  0
   12.0029    0.7456   28.7051 H   0  0  0  0  0  0  0  0  0  0  0  0
 20 21  2  0  0  0
 19 21  1  0  0  0
 21 22  1  0  0  0
  3 19  1  0  0  0
  2  3  1  0  0  0
  3  4  1  0  0  0
  1  2  1  0  0  0
  4  5  1  0  0  0
  1  7  1  0  0  0
  5  6  1  0  0  0
  5  7  1  0  0  0
  7 10  1  0  0  0
  9 10  1  0  0  0
  9 11  2  0  0  0
 14 17  1  0  0  0
 15 17  1  0  0  0
  9 13  1  0  0  0
 14 16  2  0  0  0
 15 13  1  0  0  0
 15 18  2  0  0  0
 16 18  1  0  0  0
 22 23  1  0  0  0
  6  8  1  0  0  0
 10 12  1  0  0  0
M  END
> <OPENEYE_ISO_SMILES>
B1([C@H](CC[C@H](O1)CC(=O)O)NC(=O)Cc2cccs2)O

> <OPENEYE_INCHI>
InChI=1S/C12H16BNO5S/c15-11(7-9-2-1-5-20-9)14-10-4-3-8(6-12(16)17)19-13(10)18/h1-2,5,8,10,18H,3-4,6-7H2,(H,14,15)(H,16,17)/t8-,10-/m0/s1

> <OPENEYE_INCHIKEY>
IOOWNWLVCOUUEX-WPRPVWTQSA-N

> <FORMULA>
C12H16BNO5S

> <minimizedAffinity>
-6.59117

> <CNNscore>
0.4025956094

> <CNNaffinity>
4.8982739449

> <CNN_VS>
1.9720236063

> <CNNaffinity_variance>
0.1213216558

$$$$
