4D6


 23 24  0  0  0  0  0  0  0  0999 V2000
   24.2821   -4.5990   35.2449 C   0  0  0  0  0  0  0  0  0  0  0  0
   25.3769   -4.0629   36.1724 C   0  0  0  0  0  0  0  0  0  0  0  0
   25.1973   -4.6429   37.5759 C   0  0  0  0  0  0  0  0  0  0  0  0
   23.9540   -4.1967   38.1263 O   0  0  0  0  0  0  0  0  0  0  0  0
   22.8346   -4.5203   37.3018 B   0  0  0  0  0  0  0  0  0  0  0  0
   21.6868   -5.1609   37.8398 O   0  0  0  0  0  0  0  0  0  0  0  0
   22.9162   -4.1406   35.7728 C   0  0  0  0  0  0  0  0  0  0  0  0
   21.7471   -5.3454   38.7868 H   0  0  0  0  0  0  0  0  0  0  0  0
   22.0294   -2.1862   34.6184 C   0  0  0  0  0  0  0  0  0  0  0  0
   22.7848   -2.6905   35.6145 N   0  0  0  0  0  0  0  0  0  0  0  0
   21.4584   -2.9339   33.8526 O   0  0  0  0  0  0  0  0  0  0  0  0
   23.2418   -2.0918   36.2270 H   0  0  0  0  0  0  0  0  0  0  0  0
   21.8940   -0.6942   34.4558 C   0  0  0  0  0  0  0  0  0  0  0  0
   19.8998    0.1196   31.0852 C   0  0  0  0  0  0  0  0  0  0  0  0
   21.0019   -0.3963   33.2783 C   0  0  0  0  0  0  0  0  0  0  0  0
   19.0635   -0.0138   32.1163 C   0  0  0  0  0  0  0  0  0  0  0  0
   21.5534   -0.1199   31.6317 S   0  0  0  0  0  0  0  0  0  0  0  0
   19.6727   -0.2938   33.3278 C   0  0  0  0  0  0  0  0  0  0  0  0
   26.3479   -4.1765   38.4700 C   0  0  0  0  0  0  0  0  0  0  0  0
   26.7372   -5.7671   40.1646 O   0  0  0  0  0  0  0  0  0  0  0  0
   26.1705   -4.7453   39.8541 C   0  0  0  0  0  0  0  0  0  0  0  0
   25.3838   -4.1178   40.7415 O   0  0  0  0  0  0  0  0  0  0  0  0
   25.3012   -4.5208   41.6171 H   0  0  0  0  0  0  0  0  0  0  0  0
 20 21  2  0  0  0
 19 21  1  0  0  0
 21 22  1  0  0  0
  3 19  1  0  0  0
  2  3  1  0  0  0
  3  4  1  0  0  0
  1  2  1  0  0  0
  4  5  1  0  0  0
  1  7  1  0  0  0
  5  6  1  0  0  0
  5  7  1  0  0  0
  7 10  1  0  0  0
  9 10  1  0  0  0
  9 11  2  0  0  0
 14 17  1  0  0  0
 15 17  1  0  0  0
  9 13  1  0  0  0
 14 16  2  0  0  0
 15 13  1  0  0  0
 15 18  2  0  0  0
 16 18  1  0  0  0
 22 23  1  0  0  0
  6  8  1  0  0  0
 10 12  1  0  0  0
M  END
> <OPENEYE_ISO_SMILES>
B1([C@H](CC[C@H](O1)CC(=O)O)NC(=O)Cc2cccs2)O

> <OPENEYE_INCHI>
InChI=1S/C12H16BNO5S/c15-11(7-9-2-1-5-20-9)14-10-4-3-8(6-12(16)17)19-13(10)18/h1-2,5,8,10,18H,3-4,6-7H2,(H,14,15)(H,16,17)/t8-,10-/m0/s1

> <OPENEYE_INCHIKEY>
IOOWNWLVCOUUEX-WPRPVWTQSA-N

> <FORMULA>
C12H16BNO5S

> <minimizedAffinity>
-4.33286

> <CNNscore>
0.5634148121

> <CNNaffinity>
3.8869202137

> <CNN_VS>
2.1899483204

> <CNNaffinity_variance>
0.1442046314

$$$$
4D6


 23 24  0  0  0  0  0  0  0  0999 V2000
   13.6603    6.6205   25.5456 C   0  0  0  0  0  0  0  0  0  0  0  0
   14.4593    5.4582   26.1431 C   0  0  0  0  0  0  0  0  0  0  0  0
   13.7625    4.9438   27.4034 C   0  0  0  0  0  0  0  0  0  0  0  0
   13.7473    5.9714   28.3992 O   0  0  0  0  0  0  0  0  0  0  0  0
   13.1344    7.1770   27.9427 B   0  0  0  0  0  0  0  0  0  0  0  0
   12.1244    7.8219   28.7050 O   0  0  0  0  0  0  0  0  0  0  0  0
   13.6186    7.7686   26.5628 C   0  0  0  0  0  0  0  0  0  0  0  0
   11.9082    7.3711   29.5324 H   0  0  0  0  0  0  0  0  0  0  0  0
   15.1189    9.5052   27.3825 C   0  0  0  0  0  0  0  0  0  0  0  0
   14.9559    8.3465   26.7131 N   0  0  0  0  0  0  0  0  0  0  0  0
   14.1572   10.0695   27.8603 O   0  0  0  0  0  0  0  0  0  0  0  0
   15.7257    7.8952   26.3306 H   0  0  0  0  0  0  0  0  0  0  0  0
   16.4949   10.0996   27.5375 C   0  0  0  0  0  0  0  0  0  0  0  0
   17.2300    9.9985   31.4680 C   0  0  0  0  0  0  0  0  0  0  0  0
   16.8280   10.2196   29.0023 C   0  0  0  0  0  0  0  0  0  0  0  0
   17.5571   11.1837   30.9498 C   0  0  0  0  0  0  0  0  0  0  0  0
   16.6042    8.9528   30.2010 S   0  0  0  0  0  0  0  0  0  0  0  0
   17.3305   11.3070   29.5895 C   0  0  0  0  0  0  0  0  0  0  0  0
   14.5158    3.7247   27.9394 C   0  0  0  0  0  0  0  0  0  0  0  0
   13.9088    1.9662   29.3858 O   0  0  0  0  0  0  0  0  0  0  0  0
   13.7500    3.1281   29.0919 C   0  0  0  0  0  0  0  0  0  0  0  0
   12.8922    3.8862   29.7915 O   0  0  0  0  0  0  0  0  0  0  0  0
   12.4240    3.4591   30.5225 H   0  0  0  0  0  0  0  0  0  0  0  0
 20 21  2  0  0  0
 19 21  1  0  0  0
 21 22  1  0  0  0
  3 19  1  0  0  0
  2  3  1  0  0  0
  3  4  1  0  0  0
  1  2  1  0  0  0
  4  5  1  0  0  0
  1  7  1  0  0  0
  5  6  1  0  0  0
  5  7  1  0  0  0
  7 10  1  0  0  0
  9 10  1  0  0  0
  9 11  2  0  0  0
 14 17  1  0  0  0
 15 17  1  0  0  0
  9 13  1  0  0  0
 14 16  2  0  0  0
 15 13  1  0  0  0
 15 18  2  0  0  0
 16 18  1  0  0  0
 22 23  1  0  0  0
  6  8  1  0  0  0
 10 12  1  0  0  0
M  END
> <OPENEYE_ISO_SMILES>
B1([C@H](CC[C@H](O1)CC(=O)O)NC(=O)Cc2cccs2)O

> <OPENEYE_INCHI>
InChI=1S/C12H16BNO5S/c15-11(7-9-2-1-5-20-9)14-10-4-3-8(6-12(16)17)19-13(10)18/h1-2,5,8,10,18H,3-4,6-7H2,(H,14,15)(H,16,17)/t8-,10-/m0/s1

> <OPENEYE_INCHIKEY>
IOOWNWLVCOUUEX-WPRPVWTQSA-N

> <FORMULA>
C12H16BNO5S

> <minimizedAffinity>
-7.15041

> <CNNscore>
0.5144034028

> <CNNaffinity>
5.2642168999

> <CNN_VS>
2.7079310417

> <CNNaffinity_variance>
0.2964327633

$$$$
4D6


 23 24  0  0  0  0  0  0  0  0999 V2000
   14.0944    6.9430   25.5647 C   0  0  0  0  0  0  0  0  0  0  0  0
   14.6355    5.5971   26.0570 C   0  0  0  0  0  0  0  0  0  0  0  0
   13.7069    5.0260   27.1293 C   0  0  0  0  0  0  0  0  0  0  0  0
   13.6957    5.8924   28.2683 O   0  0  0  0  0  0  0  0  0  0  0  0
   13.3236    7.2315   27.9427 B   0  0  0  0  0  0  0  0  0  0  0  0
   12.3163    7.9130   28.6763 O   0  0  0  0  0  0  0  0  0  0  0  0
   14.0708    7.9283   26.7408 C   0  0  0  0  0  0  0  0  0  0  0  0
   11.9277    7.3896   29.3902 H   0  0  0  0  0  0  0  0  0  0  0  0
   15.6702    9.2957   27.9699 C   0  0  0  0  0  0  0  0  0  0  0  0
   15.4411    8.2620   27.1356 N   0  0  0  0  0  0  0  0  0  0  0  0
   14.7408    9.9500   28.3936 O   0  0  0  0  0  0  0  0  0  0  0  0
   16.1852    7.7387   26.7964 H   0  0  0  0  0  0  0  0  0  0  0  0
   17.0801    9.6387   28.3763 C   0  0  0  0  0  0  0  0  0  0  0  0
   19.3236   11.2685   25.4936 C   0  0  0  0  0  0  0  0  0  0  0  0
   17.7824   10.3177   27.2289 C   0  0  0  0  0  0  0  0  0  0  0  0
   18.0386   11.5943   25.3424 C   0  0  0  0  0  0  0  0  0  0  0  0
   19.5102   10.2450   26.9107 S   0  0  0  0  0  0  0  0  0  0  0  0
   17.1888   11.0732   26.3034 C   0  0  0  0  0  0  0  0  0  0  0  0
   14.2038    3.6405   27.5469 C   0  0  0  0  0  0  0  0  0  0  0  0
   12.7927    2.0732   28.5982 O   0  0  0  0  0  0  0  0  0  0  0  0
   13.3685    3.1320   28.6933 C   0  0  0  0  0  0  0  0  0  0  0  0
   13.2636    3.8543   29.8192 O   0  0  0  0  0  0  0  0  0  0  0  0
   12.7167    3.4866   30.5274 H   0  0  0  0  0  0  0  0  0  0  0  0
 20 21  2  0  0  0
 19 21  1  0  0  0
 21 22  1  0  0  0
  3 19  1  0  0  0
  2  3  1  0  0  0
  3  4  1  0  0  0
  1  2  1  0  0  0
  4  5  1  0  0  0
  1  7  1  0  0  0
  5  6  1  0  0  0
  5  7  1  0  0  0
  7 10  1  0  0  0
  9 10  1  0  0  0
  9 11  2  0  0  0
 14 17  1  0  0  0
 15 17  1  0  0  0
  9 13  1  0  0  0
 14 16  2  0  0  0
 15 13  1  0  0  0
 15 18  2  0  0  0
 16 18  1  0  0  0
 22 23  1  0  0  0
  6  8  1  0  0  0
 10 12  1  0  0  0
M  END
> <OPENEYE_ISO_SMILES>
B1([C@H](CC[C@H](O1)CC(=O)O)NC(=O)Cc2cccs2)O

> <OPENEYE_INCHI>
InChI=1S/C12H16BNO5S/c15-11(7-9-2-1-5-20-9)14-10-4-3-8(6-12(16)17)19-13(10)18/h1-2,5,8,10,18H,3-4,6-7H2,(H,14,15)(H,16,17)/t8-,10-/m0/s1

> <OPENEYE_INCHIKEY>
IOOWNWLVCOUUEX-WPRPVWTQSA-N

> <FORMULA>
C12H16BNO5S

> <minimizedAffinity>
-7.08173

> <CNNscore>
0.4967570901

> <CNNaffinity>
5.1690192223

> <CNN_VS>
2.5677468777

> <CNNaffinity_variance>
0.2485816032

$$$$
4D6


 23 24  0  0  0  0  0  0  0  0999 V2000
   15.9342    6.8570   29.4743 C   0  0  0  0  0  0  0  0  0  0  0  0
   16.6029    8.1117   28.9041 C   0  0  0  0  0  0  0  0  0  0  0  0
   15.6525    9.3040   29.0203 C   0  0  0  0  0  0  0  0  0  0  0  0
   14.4891    9.0727   28.2197 O   0  0  0  0  0  0  0  0  0  0  0  0
   13.8166    7.8594   28.5561 B   0  0  0  0  0  0  0  0  0  0  0  0
   12.4176    7.8383   28.7999 O   0  0  0  0  0  0  0  0  0  0  0  0
   14.6810    6.5429   28.6464 C   0  0  0  0  0  0  0  0  0  0  0  0
   11.9908    8.7016   28.7162 H   0  0  0  0  0  0  0  0  0  0  0  0
   14.1744    5.4960   26.5048 C   0  0  0  0  0  0  0  0  0  0  0  0
   15.0702    6.1123   27.3017 N   0  0  0  0  0  0  0  0  0  0  0  0
   13.0455    5.2979   26.9019 O   0  0  0  0  0  0  0  0  0  0  0  0
   15.9738    6.2705   26.9838 H   0  0  0  0  0  0  0  0  0  0  0  0
   14.5749    5.0533   25.1212 C   0  0  0  0  0  0  0  0  0  0  0  0
   15.8318    1.3003   25.6996 C   0  0  0  0  0  0  0  0  0  0  0  0
   15.0948    3.6400   25.1770 C   0  0  0  0  0  0  0  0  0  0  0  0
   16.0589    1.6936   24.4450 C   0  0  0  0  0  0  0  0  0  0  0  0
   15.0643    2.6029   26.5967 S   0  0  0  0  0  0  0  0  0  0  0  0
   15.6564    2.9870   24.1582 C   0  0  0  0  0  0  0  0  0  0  0  0
   16.3625   10.5695   28.5353 C   0  0  0  0  0  0  0  0  0  0  0  0
   17.8043   11.7434   29.9832 O   0  0  0  0  0  0  0  0  0  0  0  0
   16.6602   11.4608   29.7133 C   0  0  0  0  0  0  0  0  0  0  0  0
   15.6557   11.9406   30.4623 O   0  0  0  0  0  0  0  0  0  0  0  0
   15.8962   12.5087   31.2075 H   0  0  0  0  0  0  0  0  0  0  0  0
 20 21  2  0  0  0
 19 21  1  0  0  0
 21 22  1  0  0  0
  3 19  1  0  0  0
  2  3  1  0  0  0
  3  4  1  0  0  0
  1  2  1  0  0  0
  4  5  1  0  0  0
  1  7  1  0  0  0
  5  6  1  0  0  0
  5  7  1  0  0  0
  7 10  1  0  0  0
  9 10  1  0  0  0
  9 11  2  0  0  0
 14 17  1  0  0  0
 15 17  1  0  0  0
  9 13  1  0  0  0
 14 16  2  0  0  0
 15 13  1  0  0  0
 15 18  2  0  0  0
 16 18  1  0  0  0
 22 23  1  0  0  0
  6  8  1  0  0  0
 10 12  1  0  0  0
M  END
> <OPENEYE_ISO_SMILES>
B1([C@H](CC[C@H](O1)CC(=O)O)NC(=O)Cc2cccs2)O

> <OPENEYE_INCHI>
InChI=1S/C12H16BNO5S/c15-11(7-9-2-1-5-20-9)14-10-4-3-8(6-12(16)17)19-13(10)18/h1-2,5,8,10,18H,3-4,6-7H2,(H,14,15)(H,16,17)/t8-,10-/m0/s1

> <OPENEYE_INCHIKEY>
IOOWNWLVCOUUEX-WPRPVWTQSA-N

> <FORMULA>
C12H16BNO5S

> <minimizedAffinity>
-6.96619

> <CNNscore>
0.4851733446

> <CNNaffinity>
5.2516989708

> <CNN_VS>
2.5479843616

> <CNNaffinity_variance>
0.2261870205

$$$$
4D6


 23 24  0  0  0  0  0  0  0  0999 V2000
   27.9298    6.5873   37.3302 C   0  0  0  0  0  0  0  0  0  0  0  0
   27.6476    6.2270   38.7921 C   0  0  0  0  0  0  0  0  0  0  0  0
   28.2044    4.8364   39.1000 C   0  0  0  0  0  0  0  0  0  0  0  0
   27.5224    3.8582   38.3088 O   0  0  0  0  0  0  0  0  0  0  0  0
   27.5935    4.1293   36.9092 B   0  0  0  0  0  0  0  0  0  0  0  0
   27.9943    3.1270   35.9863 O   0  0  0  0  0  0  0  0  0  0  0  0
   27.2102    5.5804   36.4232 C   0  0  0  0  0  0  0  0  0  0  0  0
   28.2049    2.2770   36.3958 H   0  0  0  0  0  0  0  0  0  0  0  0
   25.0001    5.7520   35.4109 C   0  0  0  0  0  0  0  0  0  0  0  0
   25.7614    5.7701   36.5233 N   0  0  0  0  0  0  0  0  0  0  0  0
   25.5155    5.5788   34.3266 O   0  0  0  0  0  0  0  0  0  0  0  0
   25.3487    5.9090   37.3910 H   0  0  0  0  0  0  0  0  0  0  0  0
   23.5094    5.9469   35.5140 C   0  0  0  0  0  0  0  0  0  0  0  0
   22.6016    9.0383   33.1436 C   0  0  0  0  0  0  0  0  0  0  0  0
   23.0721    7.0039   34.5330 C   0  0  0  0  0  0  0  0  0  0  0  0
   21.9783    7.9285   32.7434 C   0  0  0  0  0  0  0  0  0  0  0  0
   23.5785    8.6875   34.5625 S   0  0  0  0  0  0  0  0  0  0  0  0
   22.2344    6.8068   33.5136 C   0  0  0  0  0  0  0  0  0  0  0  0
   28.0013    4.5245   40.5840 C   0  0  0  0  0  0  0  0  0  0  0  0
   25.6890    4.4737   41.0354 O   0  0  0  0  0  0  0  0  0  0  0  0
   26.6780    3.8292   40.7744 C   0  0  0  0  0  0  0  0  0  0  0  0
   26.5976    2.4953   40.6543 O   0  0  0  0  0  0  0  0  0  0  0  0
   25.7269    2.0944   40.7850 H   0  0  0  0  0  0  0  0  0  0  0  0
 20 21  2  0  0  0
 19 21  1  0  0  0
 21 22  1  0  0  0
  3 19  1  0  0  0
  2  3  1  0  0  0
  3  4  1  0  0  0
  1  2  1  0  0  0
  4  5  1  0  0  0
  1  7  1  0  0  0
  5  6  1  0  0  0
  5  7  1  0  0  0
  7 10  1  0  0  0
  9 10  1  0  0  0
  9 11  2  0  0  0
 14 17  1  0  0  0
 15 17  1  0  0  0
  9 13  1  0  0  0
 14 16  2  0  0  0
 15 13  1  0  0  0
 15 18  2  0  0  0
 16 18  1  0  0  0
 22 23  1  0  0  0
  6  8  1  0  0  0
 10 12  1  0  0  0
M  END
> <OPENEYE_ISO_SMILES>
B1([C@H](CC[C@H](O1)CC(=O)O)NC(=O)Cc2cccs2)O

> <OPENEYE_INCHI>
InChI=1S/C12H16BNO5S/c15-11(7-9-2-1-5-20-9)14-10-4-3-8(6-12(16)17)19-13(10)18/h1-2,5,8,10,18H,3-4,6-7H2,(H,14,15)(H,16,17)/t8-,10-/m0/s1

> <OPENEYE_INCHIKEY>
IOOWNWLVCOUUEX-WPRPVWTQSA-N

> <FORMULA>
C12H16BNO5S

> <minimizedAffinity>
-4.11283

> <CNNscore>
0.4438874722

> <CNNaffinity>
3.6780810356

> <CNN_VS>
1.6326540709

> <CNNaffinity_variance>
0.1476444453

$$$$
4D6


 23 24  0  0  0  0  0  0  0  0999 V2000
   17.5306   -4.5108   27.6599 C   0  0  0  0  0  0  0  0  0  0  0  0
   19.0203   -4.8038   27.8634 C   0  0  0  0  0  0  0  0  0  0  0  0
   19.4059   -4.5425   29.3199 C   0  0  0  0  0  0  0  0  0  0  0  0
   19.2265   -3.1557   29.6245 O   0  0  0  0  0  0  0  0  0  0  0  0
   17.8992   -2.6984   29.3663 B   0  0  0  0  0  0  0  0  0  0  0  0
   17.1696   -1.9711   30.3440 O   0  0  0  0  0  0  0  0  0  0  0  0
   17.2715   -3.0278   27.9570 C   0  0  0  0  0  0  0  0  0  0  0  0
   17.6528   -1.8274   31.1689 H   0  0  0  0  0  0  0  0  0  0  0  0
   17.3073   -1.0588   26.5215 C   0  0  0  0  0  0  0  0  0  0  0  0
   17.9019   -2.1985   26.9276 N   0  0  0  0  0  0  0  0  0  0  0  0
   16.2494   -0.7203   27.0090 O   0  0  0  0  0  0  0  0  0  0  0  0
   18.7485   -2.4694   26.5370 H   0  0  0  0  0  0  0  0  0  0  0  0
   17.9562   -0.2055   25.4626 C   0  0  0  0  0  0  0  0  0  0  0  0
   16.1264   -1.0887   22.0171 C   0  0  0  0  0  0  0  0  0  0  0  0
   17.2197   -0.3764   24.1590 C   0  0  0  0  0  0  0  0  0  0  0  0
   15.9773    0.2018   22.3216 C   0  0  0  0  0  0  0  0  0  0  0  0
   17.0741   -1.8841   23.2659 S   0  0  0  0  0  0  0  0  0  0  0  0
   16.5852    0.5957   23.5016 C   0  0  0  0  0  0  0  0  0  0  0  0
   20.8711   -4.9269   29.5349 C   0  0  0  0  0  0  0  0  0  0  0  0
   22.4087   -3.1723   29.2033 O   0  0  0  0  0  0  0  0  0  0  0  0
   21.6494   -3.7133   29.9730 C   0  0  0  0  0  0  0  0  0  0  0  0
   21.4999   -3.2334   31.2170 O   0  0  0  0  0  0  0  0  0  0  0  0
   22.0203   -2.4525   31.4520 H   0  0  0  0  0  0  0  0  0  0  0  0
 20 21  2  0  0  0
 19 21  1  0  0  0
 21 22  1  0  0  0
  3 19  1  0  0  0
  2  3  1  0  0  0
  3  4  1  0  0  0
  1  2  1  0  0  0
  4  5  1  0  0  0
  1  7  1  0  0  0
  5  6  1  0  0  0
  5  7  1  0  0  0
  7 10  1  0  0  0
  9 10  1  0  0  0
  9 11  2  0  0  0
 14 17  1  0  0  0
 15 17  1  0  0  0
  9 13  1  0  0  0
 14 16  2  0  0  0
 15 13  1  0  0  0
 15 18  2  0  0  0
 16 18  1  0  0  0
 22 23  1  0  0  0
  6  8  1  0  0  0
 10 12  1  0  0  0
M  END
> <OPENEYE_ISO_SMILES>
B1([C@H](CC[C@H](O1)CC(=O)O)NC(=O)Cc2cccs2)O

> <OPENEYE_INCHI>
InChI=1S/C12H16BNO5S/c15-11(7-9-2-1-5-20-9)14-10-4-3-8(6-12(16)17)19-13(10)18/h1-2,5,8,10,18H,3-4,6-7H2,(H,14,15)(H,16,17)/t8-,10-/m0/s1

> <OPENEYE_INCHIKEY>
IOOWNWLVCOUUEX-WPRPVWTQSA-N

> <FORMULA>
C12H16BNO5S

> <minimizedAffinity>
-4.03764

> <CNNscore>
0.4428136349

> <CNNaffinity>
3.9147143364

> <CNN_VS>
1.7334889174

> <CNNaffinity_variance>
0.1550215483

$$$$
4D6


 23 24  0  0  0  0  0  0  0  0999 V2000
   19.1041    5.1598   27.8837 C   0  0  0  0  0  0  0  0  0  0  0  0
   19.2896    6.5585   27.2873 C   0  0  0  0  0  0  0  0  0  0  0  0
   18.7194    7.6087   28.2415 C   0  0  0  0  0  0  0  0  0  0  0  0
   17.3079    7.4178   28.3804 O   0  0  0  0  0  0  0  0  0  0  0  0
   16.9666    6.1028   28.8185 B   0  0  0  0  0  0  0  0  0  0  0  0
   16.0835    5.8989   29.9120 O   0  0  0  0  0  0  0  0  0  0  0  0
   17.6033    4.8842   28.0450 C   0  0  0  0  0  0  0  0  0  0  0  0
   15.7542    6.7164   30.3092 H   0  0  0  0  0  0  0  0  0  0  0  0
   15.7302    4.2565   26.6181 C   0  0  0  0  0  0  0  0  0  0  0  0
   16.9788    4.7529   26.7268 N   0  0  0  0  0  0  0  0  0  0  0  0
   15.1238    3.9181   27.6127 O   0  0  0  0  0  0  0  0  0  0  0  0
   17.4640    5.0233   25.9306 H   0  0  0  0  0  0  0  0  0  0  0  0
   15.0876    4.1217   25.2617 C   0  0  0  0  0  0  0  0  0  0  0  0
   16.0014    0.4491   23.9670 C   0  0  0  0  0  0  0  0  0  0  0  0
   15.4994    2.8128   24.6387 C   0  0  0  0  0  0  0  0  0  0  0  0
   16.4198    1.3785   23.1060 C   0  0  0  0  0  0  0  0  0  0  0  0
   15.2102    1.2233   25.3327 S   0  0  0  0  0  0  0  0  0  0  0  0
   16.1468    2.6835   23.4795 C   0  0  0  0  0  0  0  0  0  0  0  0
   18.9928    9.0061   27.6819 C   0  0  0  0  0  0  0  0  0  0  0  0
   17.2026   10.2392   26.7720 O   0  0  0  0  0  0  0  0  0  0  0  0
   17.7408    9.8392   27.7780 C   0  0  0  0  0  0  0  0  0  0  0  0
   17.2237   10.1370   28.9797 O   0  0  0  0  0  0  0  0  0  0  0  0
   16.4191   10.6740   28.9907 H   0  0  0  0  0  0  0  0  0  0  0  0
 20 21  2  0  0  0
 19 21  1  0  0  0
 21 22  1  0  0  0
  3 19  1  0  0  0
  2  3  1  0  0  0
  3  4  1  0  0  0
  1  2  1  0  0  0
  4  5  1  0  0  0
  1  7  1  0  0  0
  5  6  1  0  0  0
  5  7  1  0  0  0
  7 10  1  0  0  0
  9 10  1  0  0  0
  9 11  2  0  0  0
 14 17  1  0  0  0
 15 17  1  0  0  0
  9 13  1  0  0  0
 14 16  2  0  0  0
 15 13  1  0  0  0
 15 18  2  0  0  0
 16 18  1  0  0  0
 22 23  1  0  0  0
  6  8  1  0  0  0
 10 12  1  0  0  0
M  END
> <OPENEYE_ISO_SMILES>
B1([C@H](CC[C@H](O1)CC(=O)O)NC(=O)Cc2cccs2)O

> <OPENEYE_INCHI>
InChI=1S/C12H16BNO5S/c15-11(7-9-2-1-5-20-9)14-10-4-3-8(6-12(16)17)19-13(10)18/h1-2,5,8,10,18H,3-4,6-7H2,(H,14,15)(H,16,17)/t8-,10-/m0/s1

> <OPENEYE_INCHIKEY>
IOOWNWLVCOUUEX-WPRPVWTQSA-N

> <FORMULA>
C12H16BNO5S

> <minimizedAffinity>
-3.94648

> <CNNscore>
0.4257049263

> <CNNaffinity>
4.1560430527

> <CNN_VS>
1.7692480087

> <CNNaffinity_variance>
0.1706100702

$$$$
4D6


 23 24  0  0  0  0  0  0  0  0999 V2000
   17.4262    2.0995   26.0758 C   0  0  0  0  0  0  0  0  0  0  0  0
   16.7535    3.4655   25.9087 C   0  0  0  0  0  0  0  0  0  0  0  0
   15.6745    3.6462   26.9771 C   0  0  0  0  0  0  0  0  0  0  0  0
   14.6453    2.6691   26.7927 O   0  0  0  0  0  0  0  0  0  0  0  0
   15.1427    1.3312   26.8022 B   0  0  0  0  0  0  0  0  0  0  0  0
   14.5483    0.3323   27.6183 O   0  0  0  0  0  0  0  0  0  0  0  0
   16.3745    1.0005   25.8739 C   0  0  0  0  0  0  0  0  0  0  0  0
   13.8010    0.6477   28.1444 H   0  0  0  0  0  0  0  0  0  0  0  0
   16.2646   -0.0752   23.6899 C   0  0  0  0  0  0  0  0  0  0  0  0
   15.9469    0.9749   24.4733 N   0  0  0  0  0  0  0  0  0  0  0  0
   16.9052   -0.9991   24.1453 O   0  0  0  0  0  0  0  0  0  0  0  0
   15.4344    1.7143   24.1085 H   0  0  0  0  0  0  0  0  0  0  0  0
   15.8243   -0.1016   22.2490 C   0  0  0  0  0  0  0  0  0  0  0  0
   18.8896   -0.4397   19.7015 C   0  0  0  0  0  0  0  0  0  0  0  0
   17.0361   -0.0837   21.3533 C   0  0  0  0  0  0  0  0  0  0  0  0
   19.0043    0.6619   20.4455 C   0  0  0  0  0  0  0  0  0  0  0  0
   17.4238   -1.3023   20.1464 S   0  0  0  0  0  0  0  0  0  0  0  0
   17.9834    0.8555   21.3607 C   0  0  0  0  0  0  0  0  0  0  0  0
   15.0737    5.0485   26.8610 C   0  0  0  0  0  0  0  0  0  0  0  0
   12.7561    5.4579   26.7408 O   0  0  0  0  0  0  0  0  0  0  0  0
   13.6712    5.0410   27.4120 C   0  0  0  0  0  0  0  0  0  0  0  0
   13.4382    4.5719   28.6473 O   0  0  0  0  0  0  0  0  0  0  0  0
   12.5218    4.5872   28.9572 H   0  0  0  0  0  0  0  0  0  0  0  0
 20 21  2  0  0  0
 19 21  1  0  0  0
 21 22  1  0  0  0
  3 19  1  0  0  0
  2  3  1  0  0  0
  3  4  1  0  0  0
  1  2  1  0  0  0
  4  5  1  0  0  0
  1  7  1  0  0  0
  5  6  1  0  0  0
  5  7  1  0  0  0
  7 10  1  0  0  0
  9 10  1  0  0  0
  9 11  2  0  0  0
 14 17  1  0  0  0
 15 17  1  0  0  0
  9 13  1  0  0  0
 14 16  2  0  0  0
 15 13  1  0  0  0
 15 18  2  0  0  0
 16 18  1  0  0  0
 22 23  1  0  0  0
  6  8  1  0  0  0
 10 12  1  0  0  0
M  END
> <OPENEYE_ISO_SMILES>
B1([C@H](CC[C@H](O1)CC(=O)O)NC(=O)Cc2cccs2)O

> <OPENEYE_INCHI>
InChI=1S/C12H16BNO5S/c15-11(7-9-2-1-5-20-9)14-10-4-3-8(6-12(16)17)19-13(10)18/h1-2,5,8,10,18H,3-4,6-7H2,(H,14,15)(H,16,17)/t8-,10-/m0/s1

> <OPENEYE_INCHIKEY>
IOOWNWLVCOUUEX-WPRPVWTQSA-N

> <FORMULA>
C12H16BNO5S

> <minimizedAffinity>
-4.97668

> <CNNscore>
0.4198395014

> <CNNaffinity>
4.4589495659

> <CNN_VS>
1.8720431328

> <CNNaffinity_variance>
0.1102692112

$$$$
4D6


 23 24  0  0  0  0  0  0  0  0999 V2000
   21.5183   10.3667   29.7948 C   0  0  0  0  0  0  0  0  0  0  0  0
   20.5685    9.8741   28.6986 C   0  0  0  0  0  0  0  0  0  0  0  0
   19.4560   10.8996   28.4772 C   0  0  0  0  0  0  0  0  0  0  0  0
   18.6670   11.0187   29.6652 O   0  0  0  0  0  0  0  0  0  0  0  0
   19.4426   11.3589   30.8142 B   0  0  0  0  0  0  0  0  0  0  0  0
   19.0638   12.4312   31.6650 O   0  0  0  0  0  0  0  0  0  0  0  0
   20.7342   10.5017   31.1068 C   0  0  0  0  0  0  0  0  0  0  0  0
   18.2561   12.8854   31.3893 H   0  0  0  0  0  0  0  0  0  0  0  0
   21.1452    8.5158   32.4581 C   0  0  0  0  0  0  0  0  0  0  0  0
   20.3489    9.1749   31.5929 N   0  0  0  0  0  0  0  0  0  0  0  0
   22.1816    9.0219   32.8340 O   0  0  0  0  0  0  0  0  0  0  0  0
   19.5196    8.7695   31.2920 H   0  0  0  0  0  0  0  0  0  0  0  0
   20.7486    7.1508   32.9584 C   0  0  0  0  0  0  0  0  0  0  0  0
   24.0022    5.3362   34.4146 C   0  0  0  0  0  0  0  0  0  0  0  0
   21.9200    6.5131   33.6598 C   0  0  0  0  0  0  0  0  0  0  0  0
   23.2598    5.8494   35.3972 C   0  0  0  0  0  0  0  0  0  0  0  0
   23.2425    5.6700   32.8648 S   0  0  0  0  0  0  0  0  0  0  0  0
   22.1078    6.4948   34.9805 C   0  0  0  0  0  0  0  0  0  0  0  0
   18.5675   10.4438   27.3180 C   0  0  0  0  0  0  0  0  0  0  0  0
   16.9215   11.4392   25.9568 O   0  0  0  0  0  0  0  0  0  0  0  0
   17.6938   11.5888   26.8749 C   0  0  0  0  0  0  0  0  0  0  0  0
   17.7730   12.7738   27.4991 O   0  0  0  0  0  0  0  0  0  0  0  0
   17.1921   13.4783   27.1793 H   0  0  0  0  0  0  0  0  0  0  0  0
 20 21  2  0  0  0
 19 21  1  0  0  0
 21 22  1  0  0  0
  3 19  1  0  0  0
  2  3  1  0  0  0
  3  4  1  0  0  0
  1  2  1  0  0  0
  4  5  1  0  0  0
  1  7  1  0  0  0
  5  6  1  0  0  0
  5  7  1  0  0  0
  7 10  1  0  0  0
  9 10  1  0  0  0
  9 11  2  0  0  0
 14 17  1  0  0  0
 15 17  1  0  0  0
  9 13  1  0  0  0
 14 16  2  0  0  0
 15 13  1  0  0  0
 15 18  2  0  0  0
 16 18  1  0  0  0
 22 23  1  0  0  0
  6  8  1  0  0  0
 10 12  1  0  0  0
M  END
> <OPENEYE_ISO_SMILES>
B1([C@H](CC[C@H](O1)CC(=O)O)NC(=O)Cc2cccs2)O

> <OPENEYE_INCHI>
InChI=1S/C12H16BNO5S/c15-11(7-9-2-1-5-20-9)14-10-4-3-8(6-12(16)17)19-13(10)18/h1-2,5,8,10,18H,3-4,6-7H2,(H,14,15)(H,16,17)/t8-,10-/m0/s1

> <OPENEYE_INCHIKEY>
IOOWNWLVCOUUEX-WPRPVWTQSA-N

> <FORMULA>
C12H16BNO5S

> <minimizedAffinity>
-4.56565

> <CNNscore>
0.4147775173

> <CNNaffinity>
3.8723416328

> <CNN_VS>
1.6061602831

> <CNNaffinity_variance>
0.2960430384

$$$$
