NXL


 21 21  0  0  0  0  0  0  0  0999 V2000
   18.0541    1.1951   30.6676 O   0  0  0  0  0  0  0  0  0  0  0  0
   18.6430    2.2210   30.3984 C   0  0  0  0  0  0  0  0  0  0  0  0
   18.0397    3.1688   29.6545 N   0  0  0  0  0  0  0  0  0  0  0  0
   16.7133    2.9298   29.0692 C   0  0  0  0  0  0  0  0  0  0  0  0
   18.6931    4.4632   29.4168 C   0  0  0  0  0  0  0  0  0  0  0  0
   17.7316    5.5828   29.8267 C   0  0  0  0  0  0  0  0  0  0  0  0
   16.4035    5.4061   29.0885 C   0  0  0  0  0  0  0  0  0  0  0  0
   15.7781    4.0709   29.4844 C   0  0  0  0  0  0  0  0  0  0  0  0
   19.9519    4.5518   30.2396 C   0  0  0  0  0  0  0  0  0  0  0  0
   21.0160    4.2239   29.7589 O   0  0  0  0  0  0  0  0  0  0  0  0
   19.8966    4.9965   31.5110 N   0  0  0  0  0  0  0  0  0  0  0  0
   19.0462    5.2596   31.8956 H   0  0  0  0  0  0  0  0  0  0  0  0
   20.7070    5.0541   32.0413 H   0  0  0  0  0  0  0  0  0  0  0  0
   14.4853    3.9170   28.8041 N   0  0  0  0  0  0  0  0  0  0  0  0
   14.0727    4.8160   28.6057 H   0  0  0  0  0  0  0  0  0  0  0  0
   13.5747    3.0844   29.5906 O   0  0  0  0  0  0  0  0  0  0  0  0
   13.2824    1.7271   28.9677 S   0  0  0  0  0  0  0  0  0  0  0  0
   11.7684    1.5781   28.9032 O   0  0  0  0  0  0  0  0  0  0  0  0
   13.7367    1.7971   27.6233 O   0  0  0  0  0  0  0  0  0  0  0  0
   13.7425    0.7534   29.8951 O   0  0  0  0  0  0  0  0  0  0  0  0
   11.4719    0.7407   28.5195 H   0  0  0  0  0  0  0  0  0  0  0  0
  8 14  1  0  0  0
  4  8  1  0  0  0
  3  4  1  0  0  0
 16 17  1  0  0  0
  7  8  1  0  0  0
  2  3  1  0  0  0
  1  2  2  0  0  0
 17 20  2  0  0  0
  3  5  1  0  0  0
 17 19  2  0  0  0
 17 18  1  0  0  0
  9 10  2  0  0  0
  6  7  1  0  0  0
  5  9  1  0  0  0
  5  6  1  0  0  0
  9 11  1  0  0  0
 14 16  1  0  0  0
 11 12  1  0  0  0
 11 13  1  0  0  0
 14 15  1  0  0  0
 18 21  1  0  0  0
M  END
> <OPENEYE_ISO_SMILES>
C1C[C@H](N(C[C@@H]1NOS(=O)(=O)O)C=O)C(=O)N

> <OPENEYE_INCHI>
InChI=1S/C7H13N3O6S/c8-7(12)6-2-1-5(3-10(6)4-11)9-16-17(13,14)15/h4-6,9H,1-3H2,(H2,8,12)(H,13,14,15)/t5-,6+/m1/s1

> <OPENEYE_INCHIKEY>
WJDGWXPPFHLLNL-RITPCOANSA-N

> <FORMULA>
C7H13N3O6S

> <minimizedAffinity>
-4.67600

> <CNNscore>
0.6939994693

> <CNNaffinity>
4.3607931137

> <CNN_VS>
3.0263881683

> <CNNaffinity_variance>
0.0792254880

$$$$
NXL


 21 21  0  0  0  0  0  0  0  0999 V2000
   13.5015    3.4909   29.4938 O   0  0  0  0  0  0  0  0  0  0  0  0
   13.4528    4.6314   29.0830 C   0  0  0  0  0  0  0  0  0  0  0  0
   14.5888    5.2808   28.7617 N   0  0  0  0  0  0  0  0  0  0  0  0
   15.8995    4.6634   29.0070 C   0  0  0  0  0  0  0  0  0  0  0  0
   14.5414    6.6180   28.1547 C   0  0  0  0  0  0  0  0  0  0  0  0
   15.3613    6.6011   26.8610 C   0  0  0  0  0  0  0  0  0  0  0  0
   16.7746    6.0998   27.1632 C   0  0  0  0  0  0  0  0  0  0  0  0
   16.7013    4.6728   27.7008 C   0  0  0  0  0  0  0  0  0  0  0  0
   13.1127    6.9801   27.8425 C   0  0  0  0  0  0  0  0  0  0  0  0
   12.6310    6.6818   26.7702 O   0  0  0  0  0  0  0  0  0  0  0  0
   12.3681    7.6353   28.7556 N   0  0  0  0  0  0  0  0  0  0  0  0
   12.7526    7.8733   29.6134 H   0  0  0  0  0  0  0  0  0  0  0  0
   11.4479    7.8685   28.5553 H   0  0  0  0  0  0  0  0  0  0  0  0
   18.0605    4.1775   27.9567 N   0  0  0  0  0  0  0  0  0  0  0  0
   18.7341    4.9263   27.8993 H   0  0  0  0  0  0  0  0  0  0  0  0
   18.4043    3.0915   27.0384 O   0  0  0  0  0  0  0  0  0  0  0  0
   19.6809    3.3316   26.2456 S   0  0  0  0  0  0  0  0  0  0  0  0
   19.8183    2.1832   25.2551 O   0  0  0  0  0  0  0  0  0  0  0  0
   19.4586    4.5034   25.4735 O   0  0  0  0  0  0  0  0  0  0  0  0
   20.7552    3.1982   27.1663 O   0  0  0  0  0  0  0  0  0  0  0  0
   20.6056    2.2390   24.6954 H   0  0  0  0  0  0  0  0  0  0  0  0
  8 14  1  0  0  0
  4  8  1  0  0  0
  3  4  1  0  0  0
 16 17  1  0  0  0
  7  8  1  0  0  0
  2  3  1  0  0  0
  1  2  2  0  0  0
 17 20  2  0  0  0
  3  5  1  0  0  0
 17 19  2  0  0  0
 17 18  1  0  0  0
  9 10  2  0  0  0
  6  7  1  0  0  0
  5  9  1  0  0  0
  5  6  1  0  0  0
  9 11  1  0  0  0
 14 16  1  0  0  0
 11 12  1  0  0  0
 11 13  1  0  0  0
 14 15  1  0  0  0
 18 21  1  0  0  0
M  END
> <OPENEYE_ISO_SMILES>
C1C[C@H](N(C[C@@H]1NOS(=O)(=O)O)C=O)C(=O)N

> <OPENEYE_INCHI>
InChI=1S/C7H13N3O6S/c8-7(12)6-2-1-5(3-10(6)4-11)9-16-17(13,14)15/h4-6,9H,1-3H2,(H2,8,12)(H,13,14,15)/t5-,6+/m1/s1

> <OPENEYE_INCHIKEY>
WJDGWXPPFHLLNL-RITPCOANSA-N

> <FORMULA>
C7H13N3O6S

> <minimizedAffinity>
-4.61948

> <CNNscore>
0.6466619372

> <CNNaffinity>
4.5294561386

> <CNN_VS>
2.9290268421

> <CNNaffinity_variance>
0.0815077499

$$$$
NXL


 21 21  0  0  0  0  0  0  0  0999 V2000
   19.2054    3.7704   24.6620 O   0  0  0  0  0  0  0  0  0  0  0  0
   18.7651    2.6624   24.4378 C   0  0  0  0  0  0  0  0  0  0  0  0
   17.7341    2.1875   25.1638 N   0  0  0  0  0  0  0  0  0  0  0  0
   17.2045    2.9517   26.3016 C   0  0  0  0  0  0  0  0  0  0  0  0
   17.1141    0.8979   24.8302 C   0  0  0  0  0  0  0  0  0  0  0  0
   15.6056    1.1049   24.6639 C   0  0  0  0  0  0  0  0  0  0  0  0
   15.0424    1.7638   25.9244 C   0  0  0  0  0  0  0  0  0  0  0  0
   15.6939    3.1312   26.1150 C   0  0  0  0  0  0  0  0  0  0  0  0
   17.6972    0.3755   23.5431 C   0  0  0  0  0  0  0  0  0  0  0  0
   18.6680   -0.3512   23.5670 O   0  0  0  0  0  0  0  0  0  0  0  0
   17.1398    0.7148   22.3635 N   0  0  0  0  0  0  0  0  0  0  0  0
   16.3631    1.2950   22.3439 H   0  0  0  0  0  0  0  0  0  0  0  0
   17.5146    0.3784   21.5343 H   0  0  0  0  0  0  0  0  0  0  0  0
   15.1269    3.7800   27.3048 N   0  0  0  0  0  0  0  0  0  0  0  0
   15.6967    3.6033   28.1182 H   0  0  0  0  0  0  0  0  0  0  0  0
   13.7462    3.3503   27.5285 O   0  0  0  0  0  0  0  0  0  0  0  0
   13.4550    2.9218   28.9594 S   0  0  0  0  0  0  0  0  0  0  0  0
   13.1137    4.1804   29.7456 O   0  0  0  0  0  0  0  0  0  0  0  0
   12.2670    2.1441   28.9108 O   0  0  0  0  0  0  0  0  0  0  0  0
   14.6813    2.4374   29.4898 O   0  0  0  0  0  0  0  0  0  0  0  0
   12.9101    4.0185   30.6776 H   0  0  0  0  0  0  0  0  0  0  0  0
  8 14  1  0  0  0
  4  8  1  0  0  0
  3  4  1  0  0  0
 16 17  1  0  0  0
  7  8  1  0  0  0
  2  3  1  0  0  0
  1  2  2  0  0  0
 17 20  2  0  0  0
  3  5  1  0  0  0
 17 19  2  0  0  0
 17 18  1  0  0  0
  9 10  2  0  0  0
  6  7  1  0  0  0
  5  9  1  0  0  0
  5  6  1  0  0  0
  9 11  1  0  0  0
 14 16  1  0  0  0
 11 12  1  0  0  0
 11 13  1  0  0  0
 14 15  1  0  0  0
 18 21  1  0  0  0
M  END
> <OPENEYE_ISO_SMILES>
C1C[C@H](N(C[C@@H]1NOS(=O)(=O)O)C=O)C(=O)N

> <OPENEYE_INCHI>
InChI=1S/C7H13N3O6S/c8-7(12)6-2-1-5(3-10(6)4-11)9-16-17(13,14)15/h4-6,9H,1-3H2,(H2,8,12)(H,13,14,15)/t5-,6+/m1/s1

> <OPENEYE_INCHIKEY>
WJDGWXPPFHLLNL-RITPCOANSA-N

> <FORMULA>
C7H13N3O6S

> <minimizedAffinity>
-4.43968

> <CNNscore>
0.5459414721

> <CNNaffinity>
4.1231160164

> <CNN_VS>
2.2509801388

> <CNNaffinity_variance>
0.0509736128

$$$$
NXL


 21 21  0  0  0  0  0  0  0  0999 V2000
   13.3454    2.7888   28.5115 O   0  0  0  0  0  0  0  0  0  0  0  0
   13.4417    3.9970   28.5644 C   0  0  0  0  0  0  0  0  0  0  0  0
   14.6309    4.5885   28.3378 N   0  0  0  0  0  0  0  0  0  0  0  0
   15.8422    3.7818   28.1354 C   0  0  0  0  0  0  0  0  0  0  0  0
   14.7411    6.0527   28.2834 C   0  0  0  0  0  0  0  0  0  0  0  0
   15.4176    6.4471   26.9670 C   0  0  0  0  0  0  0  0  0  0  0  0
   16.7541    5.7130   26.8442 C   0  0  0  0  0  0  0  0  0  0  0  0
   16.5040    4.2072   26.8201 C   0  0  0  0  0  0  0  0  0  0  0  0
   13.3661    6.6649   28.3480 C   0  0  0  0  0  0  0  0  0  0  0  0
   12.7360    6.8517   27.3286 O   0  0  0  0  0  0  0  0  0  0  0  0
   12.8345    7.0049   29.5393 N   0  0  0  0  0  0  0  0  0  0  0  0
   13.3376    6.8550   30.3546 H   0  0  0  0  0  0  0  0  0  0  0  0
   11.9489    7.3989   29.5815 H   0  0  0  0  0  0  0  0  0  0  0  0
   17.7838    3.5027   26.6652 N   0  0  0  0  0  0  0  0  0  0  0  0
   17.6770    2.6839   26.0856 H   0  0  0  0  0  0  0  0  0  0  0  0
   18.3506    3.1526   27.9679 O   0  0  0  0  0  0  0  0  0  0  0  0
   19.7176    3.7663   28.2337 S   0  0  0  0  0  0  0  0  0  0  0  0
   20.5872    2.6786   28.8497 O   0  0  0  0  0  0  0  0  0  0  0  0
   20.2800    4.0578   26.9619 O   0  0  0  0  0  0  0  0  0  0  0  0
   19.5265    4.7476   29.2437 O   0  0  0  0  0  0  0  0  0  0  0  0
   21.4868    2.9667   29.0599 H   0  0  0  0  0  0  0  0  0  0  0  0
  8 14  1  0  0  0
  4  8  1  0  0  0
  3  4  1  0  0  0
 16 17  1  0  0  0
  7  8  1  0  0  0
  2  3  1  0  0  0
  1  2  2  0  0  0
 17 20  2  0  0  0
  3  5  1  0  0  0
 17 19  2  0  0  0
 17 18  1  0  0  0
  9 10  2  0  0  0
  6  7  1  0  0  0
  5  9  1  0  0  0
  5  6  1  0  0  0
  9 11  1  0  0  0
 14 16  1  0  0  0
 11 12  1  0  0  0
 11 13  1  0  0  0
 14 15  1  0  0  0
 18 21  1  0  0  0
M  END
> <OPENEYE_ISO_SMILES>
C1C[C@H](N(C[C@@H]1NOS(=O)(=O)O)C=O)C(=O)N

> <OPENEYE_INCHI>
InChI=1S/C7H13N3O6S/c8-7(12)6-2-1-5(3-10(6)4-11)9-16-17(13,14)15/h4-6,9H,1-3H2,(H2,8,12)(H,13,14,15)/t5-,6+/m1/s1

> <OPENEYE_INCHIKEY>
WJDGWXPPFHLLNL-RITPCOANSA-N

> <FORMULA>
C7H13N3O6S

> <minimizedAffinity>
-4.27757

> <CNNscore>
0.5336361527

> <CNNaffinity>
4.4340944290

> <CNN_VS>
2.3661930561

> <CNNaffinity_variance>
0.0841381177

$$$$
NXL


 21 21  0  0  0  0  0  0  0  0999 V2000
   19.5938    1.4740   26.8358 O   0  0  0  0  0  0  0  0  0  0  0  0
   19.6666    0.2734   26.9944 C   0  0  0  0  0  0  0  0  0  0  0  0
   18.8961   -0.3319   27.9193 N   0  0  0  0  0  0  0  0  0  0  0  0
   18.0450    0.4590   28.8189 C   0  0  0  0  0  0  0  0  0  0  0  0
   18.8865   -1.7958   28.0447 C   0  0  0  0  0  0  0  0  0  0  0  0
   17.4384   -2.2879   27.9609 C   0  0  0  0  0  0  0  0  0  0  0  0
   16.5953   -1.5633   29.0117 C   0  0  0  0  0  0  0  0  0  0  0  0
   16.6075   -0.0640   28.7243 C   0  0  0  0  0  0  0  0  0  0  0  0
   19.6921   -2.4034   26.9260 C   0  0  0  0  0  0  0  0  0  0  0  0
   19.1776   -2.6023   25.8458 O   0  0  0  0  0  0  0  0  0  0  0  0
   20.9859   -2.7257   27.1245 N   0  0  0  0  0  0  0  0  0  0  0  0
   21.3979   -2.5660   27.9877 H   0  0  0  0  0  0  0  0  0  0  0  0
   21.5053   -3.1167   26.4044 H   0  0  0  0  0  0  0  0  0  0  0  0
   15.7682    0.6286   29.7112 N   0  0  0  0  0  0  0  0  0  0  0  0
   15.1140   -0.0089   30.1394 H   0  0  0  0  0  0  0  0  0  0  0  0
   15.0729    1.7637   29.1038 O   0  0  0  0  0  0  0  0  0  0  0  0
   13.5641    1.5883   29.0110 S   0  0  0  0  0  0  0  0  0  0  0  0
   13.2994    0.5143   27.9645 O   0  0  0  0  0  0  0  0  0  0  0  0
   13.1463    1.0470   30.2565 O   0  0  0  0  0  0  0  0  0  0  0  0
   13.0517    2.8023   28.4787 O   0  0  0  0  0  0  0  0  0  0  0  0
   12.3609    0.3235   27.8258 H   0  0  0  0  0  0  0  0  0  0  0  0
  8 14  1  0  0  0
  4  8  1  0  0  0
  3  4  1  0  0  0
 16 17  1  0  0  0
  7  8  1  0  0  0
  2  3  1  0  0  0
  1  2  2  0  0  0
 17 20  2  0  0  0
  3  5  1  0  0  0
 17 19  2  0  0  0
 17 18  1  0  0  0
  9 10  2  0  0  0
  6  7  1  0  0  0
  5  9  1  0  0  0
  5  6  1  0  0  0
  9 11  1  0  0  0
 14 16  1  0  0  0
 11 12  1  0  0  0
 11 13  1  0  0  0
 14 15  1  0  0  0
 18 21  1  0  0  0
M  END
> <OPENEYE_ISO_SMILES>
C1C[C@H](N(C[C@@H]1NOS(=O)(=O)O)C=O)C(=O)N

> <OPENEYE_INCHI>
InChI=1S/C7H13N3O6S/c8-7(12)6-2-1-5(3-10(6)4-11)9-16-17(13,14)15/h4-6,9H,1-3H2,(H2,8,12)(H,13,14,15)/t5-,6+/m1/s1

> <OPENEYE_INCHIKEY>
WJDGWXPPFHLLNL-RITPCOANSA-N

> <FORMULA>
C7H13N3O6S

> <minimizedAffinity>
-4.31019

> <CNNscore>
0.5314174891

> <CNNaffinity>
4.0477724075

> <CNN_VS>
2.1510570049

> <CNNaffinity_variance>
0.1541915089

$$$$
NXL


 21 21  0  0  0  0  0  0  0  0999 V2000
   17.2059    4.2202   29.5367 O   0  0  0  0  0  0  0  0  0  0  0  0
   16.0866    4.0539   29.0995 C   0  0  0  0  0  0  0  0  0  0  0  0
   15.7248    2.8500   28.6144 N   0  0  0  0  0  0  0  0  0  0  0  0
   16.7054    1.7611   28.5052 C   0  0  0  0  0  0  0  0  0  0  0  0
   14.3410    2.5987   28.1890 C   0  0  0  0  0  0  0  0  0  0  0  0
   13.8216    1.3531   28.9132 C   0  0  0  0  0  0  0  0  0  0  0  0
   14.7767    0.1850   28.6613 C   0  0  0  0  0  0  0  0  0  0  0  0
   16.1535    0.5262   29.2258 C   0  0  0  0  0  0  0  0  0  0  0  0
   13.4812    3.7841   28.5426 C   0  0  0  0  0  0  0  0  0  0  0  0
   12.9784    3.8627   29.6435 O   0  0  0  0  0  0  0  0  0  0  0  0
   13.2707    4.7591   27.6357 N   0  0  0  0  0  0  0  0  0  0  0  0
   13.6732    4.6971   26.7557 H   0  0  0  0  0  0  0  0  0  0  0  0
   12.7174    5.5229   27.8630 H   0  0  0  0  0  0  0  0  0  0  0  0
   17.0614   -0.6096   29.0170 N   0  0  0  0  0  0  0  0  0  0  0  0
   16.6840   -1.2531   28.3379 H   0  0  0  0  0  0  0  0  0  0  0  0
   17.3496   -1.2897   30.2801 O   0  0  0  0  0  0  0  0  0  0  0  0
   18.7892   -1.1394   30.7500 S   0  0  0  0  0  0  0  0  0  0  0  0
   19.4317   -0.0569   29.8933 O   0  0  0  0  0  0  0  0  0  0  0  0
   18.7271   -0.6214   32.0717 O   0  0  0  0  0  0  0  0  0  0  0  0
   19.4470   -2.3553   30.4207 O   0  0  0  0  0  0  0  0  0  0  0  0
   20.3578    0.1193   30.1118 H   0  0  0  0  0  0  0  0  0  0  0  0
  8 14  1  0  0  0
  4  8  1  0  0  0
  3  4  1  0  0  0
 16 17  1  0  0  0
  7  8  1  0  0  0
  2  3  1  0  0  0
  1  2  2  0  0  0
 17 20  2  0  0  0
  3  5  1  0  0  0
 17 19  2  0  0  0
 17 18  1  0  0  0
  9 10  2  0  0  0
  6  7  1  0  0  0
  5  9  1  0  0  0
  5  6  1  0  0  0
  9 11  1  0  0  0
 14 16  1  0  0  0
 11 12  1  0  0  0
 11 13  1  0  0  0
 14 15  1  0  0  0
 18 21  1  0  0  0
M  END
> <OPENEYE_ISO_SMILES>
C1C[C@H](N(C[C@@H]1NOS(=O)(=O)O)C=O)C(=O)N

> <OPENEYE_INCHI>
InChI=1S/C7H13N3O6S/c8-7(12)6-2-1-5(3-10(6)4-11)9-16-17(13,14)15/h4-6,9H,1-3H2,(H2,8,12)(H,13,14,15)/t5-,6+/m1/s1

> <OPENEYE_INCHIKEY>
WJDGWXPPFHLLNL-RITPCOANSA-N

> <FORMULA>
C7H13N3O6S

> <minimizedAffinity>
-5.05589

> <CNNscore>
0.5312032104

> <CNNaffinity>
4.1005592346

> <CNN_VS>
2.1782302856

> <CNNaffinity_variance>
0.1467640251

$$$$
NXL


 21 21  0  0  0  0  0  0  0  0999 V2000
   12.4770    6.8252   29.5748 O   0  0  0  0  0  0  0  0  0  0  0  0
   13.1392    7.3218   28.6879 C   0  0  0  0  0  0  0  0  0  0  0  0
   14.0213    6.5681   28.0029 N   0  0  0  0  0  0  0  0  0  0  0  0
   14.2736    5.1731   28.3896 C   0  0  0  0  0  0  0  0  0  0  0  0
   14.7460    7.1232   26.8516 C   0  0  0  0  0  0  0  0  0  0  0  0
   14.5369    6.2009   25.6467 C   0  0  0  0  0  0  0  0  0  0  0  0
   14.9513    4.7766   26.0207 C   0  0  0  0  0  0  0  0  0  0  0  0
   14.0706    4.2768   27.1631 C   0  0  0  0  0  0  0  0  0  0  0  0
   14.2139    8.4966   26.5348 C   0  0  0  0  0  0  0  0  0  0  0  0
   14.5561    9.4494   27.2027 O   0  0  0  0  0  0  0  0  0  0  0  0
   13.3574    8.6677   25.5079 N   0  0  0  0  0  0  0  0  0  0  0  0
   13.0842    7.9063   24.9731 H   0  0  0  0  0  0  0  0  0  0  0  0
   13.0147    9.5519   25.3032 H   0  0  0  0  0  0  0  0  0  0  0  0
   14.4435    2.8960   27.4983 N   0  0  0  0  0  0  0  0  0  0  0  0
   14.0614    2.2462   26.8278 H   0  0  0  0  0  0  0  0  0  0  0  0
   14.0230    2.5545   28.8575 O   0  0  0  0  0  0  0  0  0  0  0  0
   13.2102    1.2713   28.9504 S   0  0  0  0  0  0  0  0  0  0  0  0
   11.7500    1.6469   28.7377 O   0  0  0  0  0  0  0  0  0  0  0  0
   13.5871    0.4766   27.8345 O   0  0  0  0  0  0  0  0  0  0  0  0
   13.3182    0.8253   30.2955 O   0  0  0  0  0  0  0  0  0  0  0  0
   11.1411    0.8959   28.7778 H   0  0  0  0  0  0  0  0  0  0  0  0
  8 14  1  0  0  0
  4  8  1  0  0  0
  3  4  1  0  0  0
 16 17  1  0  0  0
  7  8  1  0  0  0
  2  3  1  0  0  0
  1  2  2  0  0  0
 17 20  2  0  0  0
  3  5  1  0  0  0
 17 19  2  0  0  0
 17 18  1  0  0  0
  9 10  2  0  0  0
  6  7  1  0  0  0
  5  9  1  0  0  0
  5  6  1  0  0  0
  9 11  1  0  0  0
 14 16  1  0  0  0
 11 12  1  0  0  0
 11 13  1  0  0  0
 14 15  1  0  0  0
 18 21  1  0  0  0
M  END
> <OPENEYE_ISO_SMILES>
C1C[C@H](N(C[C@@H]1NOS(=O)(=O)O)C=O)C(=O)N

> <OPENEYE_INCHI>
InChI=1S/C7H13N3O6S/c8-7(12)6-2-1-5(3-10(6)4-11)9-16-17(13,14)15/h4-6,9H,1-3H2,(H2,8,12)(H,13,14,15)/t5-,6+/m1/s1

> <OPENEYE_INCHIKEY>
WJDGWXPPFHLLNL-RITPCOANSA-N

> <FORMULA>
C7H13N3O6S

> <minimizedAffinity>
-7.07539

> <CNNscore>
0.5202838778

> <CNNaffinity>
4.7046976089

> <CNN_VS>
2.4477782249

> <CNNaffinity_variance>
0.1909424067

$$$$
NXL


 21 21  0  0  0  0  0  0  0  0999 V2000
   16.8956    2.7410   24.4412 O   0  0  0  0  0  0  0  0  0  0  0  0
   17.5634    1.7284   24.4165 C   0  0  0  0  0  0  0  0  0  0  0  0
   17.6125    0.9272   25.4986 N   0  0  0  0  0  0  0  0  0  0  0  0
   16.9542    1.3204   26.7521 C   0  0  0  0  0  0  0  0  0  0  0  0
   18.3211   -0.3589   25.4471 C   0  0  0  0  0  0  0  0  0  0  0  0
   17.3668   -1.4658   25.9057 C   0  0  0  0  0  0  0  0  0  0  0  0
   16.8072   -1.1133   27.2851 C   0  0  0  0  0  0  0  0  0  0  0  0
   16.0177    0.1901   27.1930 C   0  0  0  0  0  0  0  0  0  0  0  0
   18.7698   -0.6317   24.0351 C   0  0  0  0  0  0  0  0  0  0  0  0
   19.8658   -0.2674   23.6651 O   0  0  0  0  0  0  0  0  0  0  0  0
   17.9534   -1.2819   23.1818 N   0  0  0  0  0  0  0  0  0  0  0  0
   17.0773   -1.5741   23.4774 H   0  0  0  0  0  0  0  0  0  0  0  0
   18.2419   -1.4581   22.2724 H   0  0  0  0  0  0  0  0  0  0  0  0
   15.4493    0.5101   28.5093 N   0  0  0  0  0  0  0  0  0  0  0  0
   14.9297   -0.2722   28.8778 H   0  0  0  0  0  0  0  0  0  0  0  0
   14.6137    1.7094   28.4421 O   0  0  0  0  0  0  0  0  0  0  0  0
   13.1777    1.4900   28.8954 S   0  0  0  0  0  0  0  0  0  0  0  0
   12.4892    2.8481   28.8828 O   0  0  0  0  0  0  0  0  0  0  0  0
   12.5523    0.7134   27.8832 O   0  0  0  0  0  0  0  0  0  0  0  0
   13.2445    1.0863   30.2564 O   0  0  0  0  0  0  0  0  0  0  0  0
   11.5618    2.8212   29.1578 H   0  0  0  0  0  0  0  0  0  0  0  0
  8 14  1  0  0  0
  4  8  1  0  0  0
  3  4  1  0  0  0
 16 17  1  0  0  0
  7  8  1  0  0  0
  2  3  1  0  0  0
  1  2  2  0  0  0
 17 20  2  0  0  0
  3  5  1  0  0  0
 17 19  2  0  0  0
 17 18  1  0  0  0
  9 10  2  0  0  0
  6  7  1  0  0  0
  5  9  1  0  0  0
  5  6  1  0  0  0
  9 11  1  0  0  0
 14 16  1  0  0  0
 11 12  1  0  0  0
 11 13  1  0  0  0
 14 15  1  0  0  0
 18 21  1  0  0  0
M  END
> <OPENEYE_ISO_SMILES>
C1C[C@H](N(C[C@@H]1NOS(=O)(=O)O)C=O)C(=O)N

> <OPENEYE_INCHI>
InChI=1S/C7H13N3O6S/c8-7(12)6-2-1-5(3-10(6)4-11)9-16-17(13,14)15/h4-6,9H,1-3H2,(H2,8,12)(H,13,14,15)/t5-,6+/m1/s1

> <OPENEYE_INCHIKEY>
WJDGWXPPFHLLNL-RITPCOANSA-N

> <FORMULA>
C7H13N3O6S

> <minimizedAffinity>
-4.27321

> <CNNscore>
0.5062311292

> <CNNaffinity>
4.0465812683

> <CNN_VS>
2.0485053062

> <CNNaffinity_variance>
0.0658443496

$$$$
NXL


 21 21  0  0  0  0  0  0  0  0999 V2000
   13.2385    3.3752   29.6255 O   0  0  0  0  0  0  0  0  0  0  0  0
   13.3475    4.4592   29.0916 C   0  0  0  0  0  0  0  0  0  0  0  0
   14.5681    4.9360   28.7781 N   0  0  0  0  0  0  0  0  0  0  0  0
   15.7812    4.2081   29.1751 C   0  0  0  0  0  0  0  0  0  0  0  0
   14.7121    6.1914   28.0284 C   0  0  0  0  0  0  0  0  0  0  0  0
   15.5923    5.9341   26.8015 C   0  0  0  0  0  0  0  0  0  0  0  0
   16.9179    5.3159   27.2492 C   0  0  0  0  0  0  0  0  0  0  0  0
   16.6471    3.9774   27.9318 C   0  0  0  0  0  0  0  0  0  0  0  0
   13.3553    6.6728   27.5848 C   0  0  0  0  0  0  0  0  0  0  0  0
   12.8460    6.2152   26.5837 O   0  0  0  0  0  0  0  0  0  0  0  0
   12.7057    7.6122   28.3009 N   0  0  0  0  0  0  0  0  0  0  0  0
   13.1121    7.9777   29.1019 H   0  0  0  0  0  0  0  0  0  0  0  0
   11.8317    7.9223   28.0160 H   0  0  0  0  0  0  0  0  0  0  0  0
   17.9223    3.3659   28.3294 N   0  0  0  0  0  0  0  0  0  0  0  0
   18.2326    2.6980   27.6399 H   0  0  0  0  0  0  0  0  0  0  0  0
   17.8169    2.7451   29.6501 O   0  0  0  0  0  0  0  0  0  0  0  0
   18.1182    1.2535   29.6593 S   0  0  0  0  0  0  0  0  0  0  0  0
   17.4721    0.6561   28.4166 O   0  0  0  0  0  0  0  0  0  0  0  0
   19.5223    1.1273   29.4821 O   0  0  0  0  0  0  0  0  0  0  0  0
   17.4225    0.7112   30.7736 O   0  0  0  0  0  0  0  0  0  0  0  0
   17.6045   -0.2981   28.3249 H   0  0  0  0  0  0  0  0  0  0  0  0
  8 14  1  0  0  0
  4  8  1  0  0  0
  3  4  1  0  0  0
 16 17  1  0  0  0
  7  8  1  0  0  0
  2  3  1  0  0  0
  1  2  2  0  0  0
 17 20  2  0  0  0
  3  5  1  0  0  0
 17 19  2  0  0  0
 17 18  1  0  0  0
  9 10  2  0  0  0
  6  7  1  0  0  0
  5  9  1  0  0  0
  5  6  1  0  0  0
  9 11  1  0  0  0
 14 16  1  0  0  0
 11 12  1  0  0  0
 11 13  1  0  0  0
 14 15  1  0  0  0
 18 21  1  0  0  0
M  END
> <OPENEYE_ISO_SMILES>
C1C[C@H](N(C[C@@H]1NOS(=O)(=O)O)C=O)C(=O)N

> <OPENEYE_INCHI>
InChI=1S/C7H13N3O6S/c8-7(12)6-2-1-5(3-10(6)4-11)9-16-17(13,14)15/h4-6,9H,1-3H2,(H2,8,12)(H,13,14,15)/t5-,6+/m1/s1

> <OPENEYE_INCHIKEY>
WJDGWXPPFHLLNL-RITPCOANSA-N

> <FORMULA>
C7H13N3O6S

> <minimizedAffinity>
-5.19654

> <CNNscore>
0.4967693985

> <CNNaffinity>
4.2877974510

> <CNN_VS>
2.1300466061

> <CNNaffinity_variance>
0.0402725153

$$$$
