


 40 43  0  0  0  0  0  0  0  0999 V2000
   18.3390    7.9987   31.6565 C   0  0  0  0  0  0  0  0  0  0  0  0
   19.8364    7.1090   31.7728 S   0  0  0  0  0  0  0  0  0  0  0  0
   20.9812    8.4566   31.7795 C   0  0  0  0  0  0  0  0  0  0  0  0
   20.5420    9.5046   30.7659 C   0  0  0  0  0  0  0  0  0  0  0  0
   19.3379   10.0990   30.8508 C   0  0  0  0  0  0  0  0  0  0  0  0
   18.3121    9.2695   31.0041 N   0  0  0  0  0  0  0  0  0  0  0  0
   17.0740    9.2119   30.5762 C   0  0  0  0  0  0  0  0  0  0  0  0
   16.3047    9.9702   30.0066 O   0  0  0  0  0  0  0  0  0  0  0  0
   16.9344    7.7971   31.0650 C   0  0  0  0  0  0  0  0  0  0  0  0
   16.5309    6.5739   30.3968 N   0  0  0  0  0  0  0  0  0  0  0  0
   16.7794    6.0152   29.2175 C   0  0  0  0  0  0  0  0  0  0  0  0
   17.9383    5.9651   28.8373 O   0  0  0  0  0  0  0  0  0  0  0  0
   15.9282    6.0267   30.9504 H   0  0  0  0  0  0  0  0  0  0  0  0
   15.7764    5.4628   28.3090 C   0  0  0  0  0  0  0  0  0  0  0  0
   15.5568    4.2234   28.3328 N   0  0  0  0  0  0  0  0  0  0  0  0
   15.0368    6.3380   27.3610 C   0  0  0  0  0  0  0  0  0  0  0  0
   14.3598    5.8305   26.2349 C   0  0  0  0  0  0  0  0  0  0  0  0
   13.6250    7.1634   25.4006 S   0  0  0  0  0  0  0  0  0  0  0  0
   14.2284    8.2906   26.5528 C   0  0  0  0  0  0  0  0  0  0  0  0
   14.0000    9.6250   26.4884 N   0  0  0  0  0  0  0  0  0  0  0  0
   14.9529    7.7011   27.5285 N   0  0  0  0  0  0  0  0  0  0  0  0
   13.4632    9.9976   25.7520 H   0  0  0  0  0  0  0  0  0  0  0  0
   14.3708   10.2217   27.1781 H   0  0  0  0  0  0  0  0  0  0  0  0
   16.1781    3.4766   29.1250 O   0  0  0  0  0  0  0  0  0  0  0  0
   17.0479    2.4733   28.6074 C   0  0  0  0  0  0  0  0  0  0  0  0
   19.0915   11.5385   30.7669 C   0  0  0  0  0  0  0  0  0  0  0  0
   19.3860   12.2500   31.7499 O   0  0  0  0  0  0  0  0  0  0  0  0
   18.5872   12.0313   29.7345 O   0  0  0  0  0  0  0  0  0  0  0  0
   18.3737   11.4793   29.0080 H   0  0  0  0  0  0  0  0  0  0  0  0
   21.4782    9.8276   29.6258 C   0  0  0  0  0  0  0  0  0  0  0  0
   20.9933    8.9545   28.1746 S   0  0  0  0  0  0  0  0  0  0  0  0
   20.0251    9.9763   27.2276 C   0  0  0  0  0  0  0  0  0  0  0  0
   18.6814    9.9802   27.3742 N   0  0  0  0  0  0  0  0  0  0  0  0
   17.9083   10.7965   26.6187 C   0  0  0  0  0  0  0  0  0  0  0  0
   16.6656   10.7799   26.7667 O   0  0  0  0  0  0  0  0  0  0  0  0
   18.4817   11.6493   25.6857 C   0  0  0  0  0  0  0  0  0  0  0  0
   17.7586   12.3997   24.9939 O   0  0  0  0  0  0  0  0  0  0  0  0
   19.8091   11.6770   25.5175 N   0  0  0  0  0  0  0  0  0  0  0  0
   20.6224   10.8385   26.2882 N   0  0  0  0  0  0  0  0  0  0  0  0
   22.0776   10.8535   26.1177 C   0  0  0  0  0  0  0  0  0  0  0  0
  3  2  1  0  0  0
  3  4  1  0  0  0
  2  1  1  0  0  0
 35 34  2  0  0  0
 33 34  2  0  0  0
 33 32  2  0  0  0
 31 32  1  0  0  0
 31 30  1  0  0  0
  1  6  1  0  0  0
  1  9  1  0  0  0
 34 36  1  0  0  0
  4  5  1  0  0  0
  4 30  1  0  0  0
 12 11  2  0  0  0
 32 39  1  0  0  0
 27 26  2  0  0  0
  5  6  1  0  0  0
  5 26  1  0  0  0
  6  7  1  0  0  0
 26 28  1  0  0  0
  9  7  1  0  0  0
  9 10  1  0  0  0
 36 37  2  0  0  0
 36 38  2  0  0  0
 39 38  1  0  0  0
 39 40  1  0  0  0
 11 10  1  0  0  0
 11 14  1  0  0  0
  7  8  2  0  0  0
 25 24  1  0  0  0
 24 15  1  0  0  0
 14 15  2  0  0  0
 14 16  1  0  0  0
 17 16  1  0  0  0
 17 18  1  0  0  0
 16 21  2  0  0  0
 18 19  1  0  0  0
 21 19  2  0  0  0
 19 20  1  0  0  0
 10 13  1  0  0  0
 20 22  1  0  0  0
 20 23  1  0  0  0
 28 29  1  0  0  0
M  END
> <REMARK>
 800 SITE_DESCRIPTION: binding site for residue 9F2 B 301                 

> <SITE>
   2 AC3  6 THR B 239  9F2 B 301                                          

> <minimizedAffinity>
-6.18372

> <CNNscore>
0.2776512504

> <CNNaffinity>
5.4982962608

> <CNN_VS>
1.5266088247

> <CNNaffinity_variance>
0.7959456444

$$$$



 40 43  0  0  0  0  0  0  0  0999 V2000
   17.2107    8.1015   31.2794 C   0  0  0  0  0  0  0  0  0  0  0  0
   18.5798    7.0986   31.6885 S   0  0  0  0  0  0  0  0  0  0  0  0
   19.8135    8.3495   31.8879 C   0  0  0  0  0  0  0  0  0  0  0  0
   19.6602    9.3969   30.7933 C   0  0  0  0  0  0  0  0  0  0  0  0
   18.5160   10.0884   30.6415 C   0  0  0  0  0  0  0  0  0  0  0  0
   17.4130    9.3492   30.6132 N   0  0  0  0  0  0  0  0  0  0  0  0
   16.2752    9.3776   29.9620 C   0  0  0  0  0  0  0  0  0  0  0  0
   15.6920   10.1768   29.2462 O   0  0  0  0  0  0  0  0  0  0  0  0
   15.9281    7.9947   30.4385 C   0  0  0  0  0  0  0  0  0  0  0  0
   15.5533    6.7874   29.7263 N   0  0  0  0  0  0  0  0  0  0  0  0
   15.3739    6.4594   28.4516 C   0  0  0  0  0  0  0  0  0  0  0  0
   16.2261    6.7966   27.6453 O   0  0  0  0  0  0  0  0  0  0  0  0
   15.3935    6.0292   30.3337 H   0  0  0  0  0  0  0  0  0  0  0  0
   14.2232    5.7372   27.9123 C   0  0  0  0  0  0  0  0  0  0  0  0
   13.2735    6.3980   27.4158 N   0  0  0  0  0  0  0  0  0  0  0  0
   14.1602    4.2522   27.9593 C   0  0  0  0  0  0  0  0  0  0  0  0
   14.7154    3.4397   26.9515 C   0  0  0  0  0  0  0  0  0  0  0  0
   14.4394    1.7810   27.3821 S   0  0  0  0  0  0  0  0  0  0  0  0
   13.6321    2.2331   28.8333 C   0  0  0  0  0  0  0  0  0  0  0  0
   13.1185    1.3416   29.7156 N   0  0  0  0  0  0  0  0  0  0  0  0
   13.5671    3.5721   28.9980 N   0  0  0  0  0  0  0  0  0  0  0  0
   13.1965    0.3758   29.5414 H   0  0  0  0  0  0  0  0  0  0  0  0
   12.6675    1.6599   30.5308 H   0  0  0  0  0  0  0  0  0  0  0  0
   13.3151    7.6502   27.3755 O   0  0  0  0  0  0  0  0  0  0  0  0
   13.5311    8.3053   26.1284 C   0  0  0  0  0  0  0  0  0  0  0  0
   18.4122   11.5397   30.4899 C   0  0  0  0  0  0  0  0  0  0  0  0
   18.7795   12.2639   31.4384 O   0  0  0  0  0  0  0  0  0  0  0  0
   17.9547   12.0308   29.4352 O   0  0  0  0  0  0  0  0  0  0  0  0
   17.6847   11.4692   28.7354 H   0  0  0  0  0  0  0  0  0  0  0  0
   20.8154    9.6076   29.8437 C   0  0  0  0  0  0  0  0  0  0  0  0
   20.5482    8.7093   28.3520 S   0  0  0  0  0  0  0  0  0  0  0  0
   19.9630    9.7807   27.1737 C   0  0  0  0  0  0  0  0  0  0  0  0
   18.6447   10.0702   27.1020 N   0  0  0  0  0  0  0  0  0  0  0  0
   18.1774   10.9261   26.1619 C   0  0  0  0  0  0  0  0  0  0  0  0
   16.9521   11.1758   26.1096 O   0  0  0  0  0  0  0  0  0  0  0  0
   19.0442   11.5275   25.2598 C   0  0  0  0  0  0  0  0  0  0  0  0
   18.6023   12.3171   24.3963 O   0  0  0  0  0  0  0  0  0  0  0  0
   20.3566   11.2693   25.3049 N   0  0  0  0  0  0  0  0  0  0  0  0
   20.8558   10.3856   26.2685 N   0  0  0  0  0  0  0  0  0  0  0  0
   22.2893   10.0894   26.3329 C   0  0  0  0  0  0  0  0  0  0  0  0
  3  2  1  0  0  0
  3  4  1  0  0  0
  2  1  1  0  0  0
 35 34  2  0  0  0
 33 34  2  0  0  0
 33 32  2  0  0  0
 31 32  1  0  0  0
 31 30  1  0  0  0
  1  6  1  0  0  0
  1  9  1  0  0  0
 34 36  1  0  0  0
  4  5  1  0  0  0
  4 30  1  0  0  0
 12 11  2  0  0  0
 32 39  1  0  0  0
 27 26  2  0  0  0
  5  6  1  0  0  0
  5 26  1  0  0  0
  6  7  1  0  0  0
 26 28  1  0  0  0
  9  7  1  0  0  0
  9 10  1  0  0  0
 36 37  2  0  0  0
 36 38  2  0  0  0
 39 38  1  0  0  0
 39 40  1  0  0  0
 11 10  1  0  0  0
 11 14  1  0  0  0
  7  8  2  0  0  0
 25 24  1  0  0  0
 24 15  1  0  0  0
 14 15  2  0  0  0
 14 16  1  0  0  0
 17 16  1  0  0  0
 17 18  1  0  0  0
 16 21  2  0  0  0
 18 19  1  0  0  0
 21 19  2  0  0  0
 19 20  1  0  0  0
 10 13  1  0  0  0
 20 22  1  0  0  0
 20 23  1  0  0  0
 28 29  1  0  0  0
M  END
> <REMARK>
 800 SITE_DESCRIPTION: binding site for residue 9F2 B 301                 

> <SITE>
   2 AC3  6 THR B 239  9F2 B 301                                          

> <minimizedAffinity>
-7.71625

> <CNNscore>
0.2556698918

> <CNNaffinity>
5.5066862106

> <CNN_VS>
1.4078938961

> <CNNaffinity_variance>
0.7385036945

$$$$



 40 43  0  0  0  0  0  0  0  0999 V2000
   16.1987    8.0135   30.5144 C   0  0  0  0  0  0  0  0  0  0  0  0
   17.7117    7.3426   31.0697 S   0  0  0  0  0  0  0  0  0  0  0  0
   18.6310    8.8356   31.2982 C   0  0  0  0  0  0  0  0  0  0  0  0
   18.3484    9.7906   30.1463 C   0  0  0  0  0  0  0  0  0  0  0  0
   17.0996   10.2142   29.8787 C   0  0  0  0  0  0  0  0  0  0  0  0
   16.1850    9.2541   29.8056 N   0  0  0  0  0  0  0  0  0  0  0  0
   15.1240    9.0163   29.0726 C   0  0  0  0  0  0  0  0  0  0  0  0
   14.4445    9.6482   28.2788 O   0  0  0  0  0  0  0  0  0  0  0  0
   15.0410    7.6066   29.5884 C   0  0  0  0  0  0  0  0  0  0  0  0
   14.9904    6.3253   28.9095 N   0  0  0  0  0  0  0  0  0  0  0  0
   15.0978    5.9186   27.6494 C   0  0  0  0  0  0  0  0  0  0  0  0
   16.0207    6.3555   26.9804 O   0  0  0  0  0  0  0  0  0  0  0  0
   14.8406    5.5777   29.5323 H   0  0  0  0  0  0  0  0  0  0  0  0
   14.1882    4.9965   26.9721 C   0  0  0  0  0  0  0  0  0  0  0  0
   13.0581    5.4182   26.6115 N   0  0  0  0  0  0  0  0  0  0  0  0
   14.5756    3.5823   26.7241 C   0  0  0  0  0  0  0  0  0  0  0  0
   15.0640    3.1395   25.4793 C   0  0  0  0  0  0  0  0  0  0  0  0
   15.4048    1.4423   25.6059 S   0  0  0  0  0  0  0  0  0  0  0  0
   14.9038    1.4067   27.2520 C   0  0  0  0  0  0  0  0  0  0  0  0
   14.9185    0.2881   28.0172 N   0  0  0  0  0  0  0  0  0  0  0  0
   14.4957    2.6144   27.6987 N   0  0  0  0  0  0  0  0  0  0  0  0
   15.2272   -0.5653   27.6357 H   0  0  0  0  0  0  0  0  0  0  0  0
   14.6205    0.3291   28.9546 H   0  0  0  0  0  0  0  0  0  0  0  0
   12.7203    6.6073   26.8199 O   0  0  0  0  0  0  0  0  0  0  0  0
   12.9210    7.5828   25.8006 C   0  0  0  0  0  0  0  0  0  0  0  0
   16.7026   11.6036   29.6505 C   0  0  0  0  0  0  0  0  0  0  0  0
   17.3056   12.2575   28.7742 O   0  0  0  0  0  0  0  0  0  0  0  0
   15.7874   12.1161   30.3308 O   0  0  0  0  0  0  0  0  0  0  0  0
   15.3478   11.6075   30.9835 H   0  0  0  0  0  0  0  0  0  0  0  0
   19.5059   10.2156   29.2744 C   0  0  0  0  0  0  0  0  0  0  0  0
   19.3852    9.4550   27.6900 S   0  0  0  0  0  0  0  0  0  0  0  0
   19.5534   10.6536   26.5011 C   0  0  0  0  0  0  0  0  0  0  0  0
   20.7698   11.1648   26.2079 N   0  0  0  0  0  0  0  0  0  0  0  0
   20.9044   12.1212   25.2581 C   0  0  0  0  0  0  0  0  0  0  0  0
   22.0393   12.5850   25.0063 O   0  0  0  0  0  0  0  0  0  0  0  0
   19.7974   12.5887   24.5634 C   0  0  0  0  0  0  0  0  0  0  0  0
   19.9329   13.4714   23.6877 O   0  0  0  0  0  0  0  0  0  0  0  0
   18.5782   12.1012   24.8228 N   0  0  0  0  0  0  0  0  0  0  0  0
   18.4210   11.1143   25.8025 N   0  0  0  0  0  0  0  0  0  0  0  0
   17.0943   10.5692   26.1015 C   0  0  0  0  0  0  0  0  0  0  0  0
  3  2  1  0  0  0
  3  4  1  0  0  0
  2  1  1  0  0  0
 35 34  2  0  0  0
 33 34  2  0  0  0
 33 32  2  0  0  0
 31 32  1  0  0  0
 31 30  1  0  0  0
  1  6  1  0  0  0
  1  9  1  0  0  0
 34 36  1  0  0  0
  4  5  1  0  0  0
  4 30  1  0  0  0
 12 11  2  0  0  0
 32 39  1  0  0  0
 27 26  2  0  0  0
  5  6  1  0  0  0
  5 26  1  0  0  0
  6  7  1  0  0  0
 26 28  1  0  0  0
  9  7  1  0  0  0
  9 10  1  0  0  0
 36 37  2  0  0  0
 36 38  2  0  0  0
 39 38  1  0  0  0
 39 40  1  0  0  0
 11 10  1  0  0  0
 11 14  1  0  0  0
  7  8  2  0  0  0
 25 24  1  0  0  0
 24 15  1  0  0  0
 14 15  2  0  0  0
 14 16  1  0  0  0
 17 16  1  0  0  0
 17 18  1  0  0  0
 16 21  2  0  0  0
 18 19  1  0  0  0
 21 19  2  0  0  0
 19 20  1  0  0  0
 10 13  1  0  0  0
 20 22  1  0  0  0
 20 23  1  0  0  0
 28 29  1  0  0  0
M  END
> <REMARK>
 800 SITE_DESCRIPTION: binding site for residue 9F2 B 301                 

> <SITE>
   2 AC3  6 THR B 239  9F2 B 301                                          

> <minimizedAffinity>
-7.84696

> <CNNscore>
0.2466403693

> <CNNaffinity>
5.6687974930

> <CNN_VS>
1.3981542587

> <CNNaffinity_variance>
0.2409728318

$$$$



 40 43  0  0  0  0  0  0  0  0999 V2000
   20.8138    9.9177   28.2672 C   0  0  0  0  0  0  0  0  0  0  0  0
   21.3442    9.3379   26.7083 S   0  0  0  0  0  0  0  0  0  0  0  0
   22.4438   10.6492   26.2636 C   0  0  0  0  0  0  0  0  0  0  0  0
   21.8275   11.9863   26.6523 C   0  0  0  0  0  0  0  0  0  0  0  0
   21.4934   12.2589   27.9269 C   0  0  0  0  0  0  0  0  0  0  0  0
   20.7720   11.3214   28.5307 N   0  0  0  0  0  0  0  0  0  0  0  0
   19.7815   11.3010   29.3897 C   0  0  0  0  0  0  0  0  0  0  0  0
   19.2287   12.1147   30.1132 O   0  0  0  0  0  0  0  0  0  0  0  0
   19.5575    9.8340   29.1493 C   0  0  0  0  0  0  0  0  0  0  0  0
   18.3773    9.0814   28.7670 N   0  0  0  0  0  0  0  0  0  0  0  0
   17.2042    9.3778   28.2185 C   0  0  0  0  0  0  0  0  0  0  0  0
   17.1956   10.0953   27.2310 O   0  0  0  0  0  0  0  0  0  0  0  0
   18.4676    8.1204   28.9606 H   0  0  0  0  0  0  0  0  0  0  0  0
   15.9000    8.9333   28.7062 C   0  0  0  0  0  0  0  0  0  0  0  0
   15.4828    9.3784   29.8075 N   0  0  0  0  0  0  0  0  0  0  0  0
   15.0824    7.9626   27.9310 C   0  0  0  0  0  0  0  0  0  0  0  0
   15.3563    6.5810   27.9220 C   0  0  0  0  0  0  0  0  0  0  0  0
   14.1772    5.8034   26.9131 S   0  0  0  0  0  0  0  0  0  0  0  0
   13.4015    7.3006   26.5688 C   0  0  0  0  0  0  0  0  0  0  0  0
   12.3123    7.4156   25.7703 N   0  0  0  0  0  0  0  0  0  0  0  0
   13.9949    8.3480   27.1814 N   0  0  0  0  0  0  0  0  0  0  0  0
   11.9231    6.6148   25.3503 H   0  0  0  0  0  0  0  0  0  0  0  0
   11.9103    8.3000   25.6105 H   0  0  0  0  0  0  0  0  0  0  0  0
   16.1665   10.1935   30.4707 O   0  0  0  0  0  0  0  0  0  0  0  0
   16.6452    9.8217   31.7605 C   0  0  0  0  0  0  0  0  0  0  0  0
   21.8393   13.4795   28.6552 C   0  0  0  0  0  0  0  0  0  0  0  0
   22.9685   13.5568   29.1825 O   0  0  0  0  0  0  0  0  0  0  0  0
   21.0114   14.4115   28.7498 O   0  0  0  0  0  0  0  0  0  0  0  0
   20.1694   14.3329   28.3464 H   0  0  0  0  0  0  0  0  0  0  0  0
   21.5529   12.9884   25.5563 C   0  0  0  0  0  0  0  0  0  0  0  0
   19.8313   13.0271   25.1851 S   0  0  0  0  0  0  0  0  0  0  0  0
   19.2981   14.6360   25.2622 C   0  0  0  0  0  0  0  0  0  0  0  0
   19.2408   15.2850   26.4464 N   0  0  0  0  0  0  0  0  0  0  0  0
   18.8160   16.5697   26.5081 C   0  0  0  0  0  0  0  0  0  0  0  0
   18.7652   17.1501   27.6158 O   0  0  0  0  0  0  0  0  0  0  0  0
   18.4388   17.2458   25.3560 C   0  0  0  0  0  0  0  0  0  0  0  0
   18.0489   18.4323   25.4240 O   0  0  0  0  0  0  0  0  0  0  0  0
   18.4885   16.6370   24.1651 N   0  0  0  0  0  0  0  0  0  0  0  0
   18.9228   15.3091   24.0838 N   0  0  0  0  0  0  0  0  0  0  0  0
   18.9829   14.6252   22.7895 C   0  0  0  0  0  0  0  0  0  0  0  0
  3  2  1  0  0  0
  3  4  1  0  0  0
  2  1  1  0  0  0
 35 34  2  0  0  0
 33 34  2  0  0  0
 33 32  2  0  0  0
 31 32  1  0  0  0
 31 30  1  0  0  0
  1  6  1  0  0  0
  1  9  1  0  0  0
 34 36  1  0  0  0
  4  5  1  0  0  0
  4 30  1  0  0  0
 12 11  2  0  0  0
 32 39  1  0  0  0
 27 26  2  0  0  0
  5  6  1  0  0  0
  5 26  1  0  0  0
  6  7  1  0  0  0
 26 28  1  0  0  0
  9  7  1  0  0  0
  9 10  1  0  0  0
 36 37  2  0  0  0
 36 38  2  0  0  0
 39 38  1  0  0  0
 39 40  1  0  0  0
 11 10  1  0  0  0
 11 14  1  0  0  0
  7  8  2  0  0  0
 25 24  1  0  0  0
 24 15  1  0  0  0
 14 15  2  0  0  0
 14 16  1  0  0  0
 17 16  1  0  0  0
 17 18  1  0  0  0
 16 21  2  0  0  0
 18 19  1  0  0  0
 21 19  2  0  0  0
 19 20  1  0  0  0
 10 13  1  0  0  0
 20 22  1  0  0  0
 20 23  1  0  0  0
 28 29  1  0  0  0
M  END
> <REMARK>
 800 SITE_DESCRIPTION: binding site for residue 9F2 B 301                 

> <SITE>
   2 AC3  6 THR B 239  9F2 B 301                                          

> <minimizedAffinity>
-6.19454

> <CNNscore>
0.2368378788

> <CNNaffinity>
5.3031945229

> <CNN_VS>
1.2559973001

> <CNNaffinity_variance>
0.3723426461

$$$$



 40 43  0  0  0  0  0  0  0  0999 V2000
   16.1371    8.2081   30.4698 C   0  0  0  0  0  0  0  0  0  0  0  0
   17.5387    7.4500   31.1828 S   0  0  0  0  0  0  0  0  0  0  0  0
   18.6608    8.8162   31.1535 C   0  0  0  0  0  0  0  0  0  0  0  0
   18.5180    9.5660   29.8359 C   0  0  0  0  0  0  0  0  0  0  0  0
   17.3424   10.1012   29.4589 C   0  0  0  0  0  0  0  0  0  0  0  0
   16.3006    9.2817   29.5414 N   0  0  0  0  0  0  0  0  0  0  0  0
   15.2174    9.0599   28.8365 C   0  0  0  0  0  0  0  0  0  0  0  0
   14.6355    9.6187   27.9198 O   0  0  0  0  0  0  0  0  0  0  0  0
   14.9342    7.7988   29.6044 C   0  0  0  0  0  0  0  0  0  0  0  0
   14.7026    6.4320   29.1762 N   0  0  0  0  0  0  0  0  0  0  0  0
   14.9883    5.7204   28.0914 C   0  0  0  0  0  0  0  0  0  0  0  0
   16.1241    5.7784   27.6478 O   0  0  0  0  0  0  0  0  0  0  0  0
   14.2172    5.9055   29.8518 H   0  0  0  0  0  0  0  0  0  0  0  0
   14.0493    4.8754   27.3560 C   0  0  0  0  0  0  0  0  0  0  0  0
   13.0193    5.4047   26.8619 N   0  0  0  0  0  0  0  0  0  0  0  0
   14.2899    3.4159   27.2032 C   0  0  0  0  0  0  0  0  0  0  0  0
   15.0479    2.8816   26.1430 C   0  0  0  0  0  0  0  0  0  0  0  0
   15.0975    1.1567   26.3304 S   0  0  0  0  0  0  0  0  0  0  0  0
   14.1455    1.2282   27.7624 C   0  0  0  0  0  0  0  0  0  0  0  0
   13.7837    0.1359   28.4787 N   0  0  0  0  0  0  0  0  0  0  0  0
   13.7995    2.4906   28.0957 N   0  0  0  0  0  0  0  0  0  0  0  0
   14.0664   -0.7605   28.1859 H   0  0  0  0  0  0  0  0  0  0  0  0
   13.2382    0.2389   29.2917 H   0  0  0  0  0  0  0  0  0  0  0  0
   12.8051    6.6332   26.9889 O   0  0  0  0  0  0  0  0  0  0  0  0
   12.9777    7.4953   25.8673 C   0  0  0  0  0  0  0  0  0  0  0  0
   17.1473   11.4638   28.9638 C   0  0  0  0  0  0  0  0  0  0  0  0
   17.4368   11.7110   27.7746 O   0  0  0  0  0  0  0  0  0  0  0  0
   16.7110   12.3536   29.7261 O   0  0  0  0  0  0  0  0  0  0  0  0
   16.4998   12.1466   30.6152 H   0  0  0  0  0  0  0  0  0  0  0  0
   19.7251    9.6527   28.9324 C   0  0  0  0  0  0  0  0  0  0  0  0
   20.9730    8.5342   29.4758 S   0  0  0  0  0  0  0  0  0  0  0  0
   20.5676    6.9740   28.9465 C   0  0  0  0  0  0  0  0  0  0  0  0
   20.0885    6.7745   27.6984 N   0  0  0  0  0  0  0  0  0  0  0  0
   19.7656    5.5289   27.2754 C   0  0  0  0  0  0  0  0  0  0  0  0
   19.3181    5.3673   26.1178 O   0  0  0  0  0  0  0  0  0  0  0  0
   19.9276    4.4337   28.1126 C   0  0  0  0  0  0  0  0  0  0  0  0
   19.6272    3.2876   27.7116 O   0  0  0  0  0  0  0  0  0  0  0  0
   20.4052    4.5925   29.3527 N   0  0  0  0  0  0  0  0  0  0  0  0
   20.7417    5.8729   29.8065 N   0  0  0  0  0  0  0  0  0  0  0  0
   21.2648    6.0671   31.1613 C   0  0  0  0  0  0  0  0  0  0  0  0
  3  2  1  0  0  0
  3  4  1  0  0  0
  2  1  1  0  0  0
 35 34  2  0  0  0
 33 34  2  0  0  0
 33 32  2  0  0  0
 31 32  1  0  0  0
 31 30  1  0  0  0
  1  6  1  0  0  0
  1  9  1  0  0  0
 34 36  1  0  0  0
  4  5  1  0  0  0
  4 30  1  0  0  0
 12 11  2  0  0  0
 32 39  1  0  0  0
 27 26  2  0  0  0
  5  6  1  0  0  0
  5 26  1  0  0  0
  6  7  1  0  0  0
 26 28  1  0  0  0
  9  7  1  0  0  0
  9 10  1  0  0  0
 36 37  2  0  0  0
 36 38  2  0  0  0
 39 38  1  0  0  0
 39 40  1  0  0  0
 11 10  1  0  0  0
 11 14  1  0  0  0
  7  8  2  0  0  0
 25 24  1  0  0  0
 24 15  1  0  0  0
 14 15  2  0  0  0
 14 16  1  0  0  0
 17 16  1  0  0  0
 17 18  1  0  0  0
 16 21  2  0  0  0
 18 19  1  0  0  0
 21 19  2  0  0  0
 19 20  1  0  0  0
 10 13  1  0  0  0
 20 22  1  0  0  0
 20 23  1  0  0  0
 28 29  1  0  0  0
M  END
> <REMARK>
 800 SITE_DESCRIPTION: binding site for residue 9F2 B 301                 

> <SITE>
   2 AC3  6 THR B 239  9F2 B 301                                          

> <minimizedAffinity>
-7.62012

> <CNNscore>
0.2176468372

> <CNNaffinity>
5.9354887009

> <CNN_VS>
1.2918403149

> <CNNaffinity_variance>
0.2008538246

$$$$



 40 43  0  0  0  0  0  0  0  0999 V2000
   16.0967    8.5912   30.1796 C   0  0  0  0  0  0  0  0  0  0  0  0
   17.3968    7.9163   31.1292 S   0  0  0  0  0  0  0  0  0  0  0  0
   18.6295    9.1563   30.8663 C   0  0  0  0  0  0  0  0  0  0  0  0
   18.6087    9.5960   29.4086 C   0  0  0  0  0  0  0  0  0  0  0  0
   17.5000   10.1145   28.8497 C   0  0  0  0  0  0  0  0  0  0  0  0
   16.3906    9.4117   29.0475 N   0  0  0  0  0  0  0  0  0  0  0  0
   15.3250    9.1139   28.3437 C   0  0  0  0  0  0  0  0  0  0  0  0
   14.8332    9.4904   27.2913 O   0  0  0  0  0  0  0  0  0  0  0  0
   14.9033    8.0835   29.3540 C   0  0  0  0  0  0  0  0  0  0  0  0
   14.5775    6.6753   29.2271 N   0  0  0  0  0  0  0  0  0  0  0  0
   14.8786    5.7095   28.3661 C   0  0  0  0  0  0  0  0  0  0  0  0
   16.0460    5.5773   28.0348 O   0  0  0  0  0  0  0  0  0  0  0  0
   13.9928    6.3598   29.9537 H   0  0  0  0  0  0  0  0  0  0  0  0
   13.9242    4.7873   27.7535 C   0  0  0  0  0  0  0  0  0  0  0  0
   12.9638    5.2624   27.0924 N   0  0  0  0  0  0  0  0  0  0  0  0
   14.0682    3.3161   27.9160 C   0  0  0  0  0  0  0  0  0  0  0  0
   14.5869    2.4905   26.8995 C   0  0  0  0  0  0  0  0  0  0  0  0
   14.5968    0.8561   27.4839 S   0  0  0  0  0  0  0  0  0  0  0  0
   13.9387    1.3346   29.0005 C   0  0  0  0  0  0  0  0  0  0  0  0
   13.6729    0.4700   30.0099 N   0  0  0  0  0  0  0  0  0  0  0  0
   13.7170    2.6649   29.0761 N   0  0  0  0  0  0  0  0  0  0  0  0
   13.8558   -0.4907   29.8962 H   0  0  0  0  0  0  0  0  0  0  0  0
   13.2970    0.8026   30.8568 H   0  0  0  0  0  0  0  0  0  0  0  0
   12.8311    6.5012   26.9533 O   0  0  0  0  0  0  0  0  0  0  0  0
   13.1081    7.0991   25.6897 C   0  0  0  0  0  0  0  0  0  0  0  0
   17.4418   11.3397   28.0525 C   0  0  0  0  0  0  0  0  0  0  0  0
   17.3698   12.4340   28.6495 O   0  0  0  0  0  0  0  0  0  0  0  0
   17.4534   11.2788   26.8038 O   0  0  0  0  0  0  0  0  0  0  0  0
   17.5080   10.4471   26.3758 H   0  0  0  0  0  0  0  0  0  0  0  0
   19.8578    9.3889   28.5853 C   0  0  0  0  0  0  0  0  0  0  0  0
   21.2763    9.9095   29.4910 S   0  0  0  0  0  0  0  0  0  0  0  0
   22.1179    8.5327   30.0149 C   0  0  0  0  0  0  0  0  0  0  0  0
   22.4592    7.5612   29.1393 N   0  0  0  0  0  0  0  0  0  0  0  0
   23.1319    6.4623   29.5572 C   0  0  0  0  0  0  0  0  0  0  0  0
   23.4330    5.5720   28.7307 O   0  0  0  0  0  0  0  0  0  0  0  0
   23.4897    6.3168   30.8905 C   0  0  0  0  0  0  0  0  0  0  0  0
   24.1116    5.2985   31.2656 O   0  0  0  0  0  0  0  0  0  0  0  0
   23.1740    7.2613   31.7846 N   0  0  0  0  0  0  0  0  0  0  0  0
   22.4771    8.4020   31.3701 N   0  0  0  0  0  0  0  0  0  0  0  0
   22.1214    9.4463   32.3342 C   0  0  0  0  0  0  0  0  0  0  0  0
  3  2  1  0  0  0
  3  4  1  0  0  0
  2  1  1  0  0  0
 35 34  2  0  0  0
 33 34  2  0  0  0
 33 32  2  0  0  0
 31 32  1  0  0  0
 31 30  1  0  0  0
  1  6  1  0  0  0
  1  9  1  0  0  0
 34 36  1  0  0  0
  4  5  1  0  0  0
  4 30  1  0  0  0
 12 11  2  0  0  0
 32 39  1  0  0  0
 27 26  2  0  0  0
  5  6  1  0  0  0
  5 26  1  0  0  0
  6  7  1  0  0  0
 26 28  1  0  0  0
  9  7  1  0  0  0
  9 10  1  0  0  0
 36 37  2  0  0  0
 36 38  2  0  0  0
 39 38  1  0  0  0
 39 40  1  0  0  0
 11 10  1  0  0  0
 11 14  1  0  0  0
  7  8  2  0  0  0
 25 24  1  0  0  0
 24 15  1  0  0  0
 14 15  2  0  0  0
 14 16  1  0  0  0
 17 16  1  0  0  0
 17 18  1  0  0  0
 16 21  2  0  0  0
 18 19  1  0  0  0
 21 19  2  0  0  0
 19 20  1  0  0  0
 10 13  1  0  0  0
 20 22  1  0  0  0
 20 23  1  0  0  0
 28 29  1  0  0  0
M  END
> <REMARK>
 800 SITE_DESCRIPTION: binding site for residue 9F2 B 301                 

> <SITE>
   2 AC3  6 THR B 239  9F2 B 301                                          

> <minimizedAffinity>
-7.28403

> <CNNscore>
0.2162620872

> <CNNaffinity>
5.7144546509

> <CNN_VS>
1.2358199358

> <CNNaffinity_variance>
0.3650846779

$$$$



 40 43  0  0  0  0  0  0  0  0999 V2000
   20.3166   12.7599   24.5733 C   0  0  0  0  0  0  0  0  0  0  0  0
   18.6612   13.1369   24.1674 S   0  0  0  0  0  0  0  0  0  0  0  0
   18.0657   13.6098   25.7638 C   0  0  0  0  0  0  0  0  0  0  0  0
   18.6234   12.6628   26.8178 C   0  0  0  0  0  0  0  0  0  0  0  0
   19.9490   12.5149   26.9947 C   0  0  0  0  0  0  0  0  0  0  0  0
   20.6421   12.2930   25.8838 N   0  0  0  0  0  0  0  0  0  0  0  0
   21.6766   11.5603   25.5483 C   0  0  0  0  0  0  0  0  0  0  0  0
   22.5278   10.9172   26.1425 O   0  0  0  0  0  0  0  0  0  0  0  0
   21.4230   11.8093   24.0876 C   0  0  0  0  0  0  0  0  0  0  0  0
   21.2475   10.9074   22.9647 N   0  0  0  0  0  0  0  0  0  0  0  0
   21.2687   11.0299   21.6420 C   0  0  0  0  0  0  0  0  0  0  0  0
   22.1912   11.6490   21.1362 O   0  0  0  0  0  0  0  0  0  0  0  0
   21.0700    9.9826   23.2519 H   0  0  0  0  0  0  0  0  0  0  0  0
   20.2641   10.5002   20.7219 C   0  0  0  0  0  0  0  0  0  0  0  0
   19.3017   11.2397   20.3870 N   0  0  0  0  0  0  0  0  0  0  0  0
   20.3605    9.1113   20.1993 C   0  0  0  0  0  0  0  0  0  0  0  0
   21.5905    8.5155   19.8584 C   0  0  0  0  0  0  0  0  0  0  0  0
   21.2733    6.9020   19.3029 S   0  0  0  0  0  0  0  0  0  0  0  0
   19.5802    7.0899   19.5477 C   0  0  0  0  0  0  0  0  0  0  0  0
   18.6717    6.1180   19.2886 N   0  0  0  0  0  0  0  0  0  0  0  0
   19.2552    8.3102   20.0270 N   0  0  0  0  0  0  0  0  0  0  0  0
   18.9689    5.2467   18.9395 H   0  0  0  0  0  0  0  0  0  0  0  0
   17.7146    6.2832   19.4496 H   0  0  0  0  0  0  0  0  0  0  0  0
   19.2091   12.4104   20.8255 O   0  0  0  0  0  0  0  0  0  0  0  0
   18.4266   13.3661   20.1145 C   0  0  0  0  0  0  0  0  0  0  0  0
   20.6463   12.5589   28.2799 C   0  0  0  0  0  0  0  0  0  0  0  0
   20.8070   11.4903   28.9056 O   0  0  0  0  0  0  0  0  0  0  0  0
   21.0571   13.6482   28.7357 O   0  0  0  0  0  0  0  0  0  0  0  0
   20.9262   14.4386   28.2498 H   0  0  0  0  0  0  0  0  0  0  0  0
   17.6454   11.8505   27.6329 C   0  0  0  0  0  0  0  0  0  0  0  0
   17.8001   10.1400   27.2408 S   0  0  0  0  0  0  0  0  0  0  0  0
   16.3018    9.3882   27.5023 C   0  0  0  0  0  0  0  0  0  0  0  0
   15.4091    9.2659   26.4948 N   0  0  0  0  0  0  0  0  0  0  0  0
   14.2132    8.6649   26.7032 C   0  0  0  0  0  0  0  0  0  0  0  0
   13.3989    8.5674   25.7578 O   0  0  0  0  0  0  0  0  0  0  0  0
   13.8852    8.1571   27.9527 C   0  0  0  0  0  0  0  0  0  0  0  0
   12.7785    7.6032   28.1341 O   0  0  0  0  0  0  0  0  0  0  0  0
   14.7469    8.2547   28.9722 N   0  0  0  0  0  0  0  0  0  0  0  0
   15.9859    8.8746   28.7747 N   0  0  0  0  0  0  0  0  0  0  0  0
   16.9420    8.9922   29.8787 C   0  0  0  0  0  0  0  0  0  0  0  0
  3  2  1  0  0  0
  3  4  1  0  0  0
  2  1  1  0  0  0
 35 34  2  0  0  0
 33 34  2  0  0  0
 33 32  2  0  0  0
 31 32  1  0  0  0
 31 30  1  0  0  0
  1  6  1  0  0  0
  1  9  1  0  0  0
 34 36  1  0  0  0
  4  5  1  0  0  0
  4 30  1  0  0  0
 12 11  2  0  0  0
 32 39  1  0  0  0
 27 26  2  0  0  0
  5  6  1  0  0  0
  5 26  1  0  0  0
  6  7  1  0  0  0
 26 28  1  0  0  0
  9  7  1  0  0  0
  9 10  1  0  0  0
 36 37  2  0  0  0
 36 38  2  0  0  0
 39 38  1  0  0  0
 39 40  1  0  0  0
 11 10  1  0  0  0
 11 14  1  0  0  0
  7  8  2  0  0  0
 25 24  1  0  0  0
 24 15  1  0  0  0
 14 15  2  0  0  0
 14 16  1  0  0  0
 17 16  1  0  0  0
 17 18  1  0  0  0
 16 21  2  0  0  0
 18 19  1  0  0  0
 21 19  2  0  0  0
 19 20  1  0  0  0
 10 13  1  0  0  0
 20 22  1  0  0  0
 20 23  1  0  0  0
 28 29  1  0  0  0
M  END
> <REMARK>
 800 SITE_DESCRIPTION: binding site for residue 9F2 B 301                 

> <SITE>
   2 AC3  6 THR B 239  9F2 B 301                                          

> <minimizedAffinity>
-6.00903

> <CNNscore>
0.1939786375

> <CNNaffinity>
4.9690465927

> <CNN_VS>
0.9638888836

> <CNNaffinity_variance>
0.4034407139

$$$$



 40 43  0  0  0  0  0  0  0  0999 V2000
   18.8387   11.3513   27.2810 C   0  0  0  0  0  0  0  0  0  0  0  0
   17.1825   10.7994   27.2832 S   0  0  0  0  0  0  0  0  0  0  0  0
   17.1495    9.9694   28.8441 C   0  0  0  0  0  0  0  0  0  0  0  0
   18.4418    9.1867   29.0336 C   0  0  0  0  0  0  0  0  0  0  0  0
   19.6399    9.7987   29.0149 C   0  0  0  0  0  0  0  0  0  0  0  0
   19.8389   10.6113   27.9834 N   0  0  0  0  0  0  0  0  0  0  0  0
   20.8519   10.9254   27.2122 C   0  0  0  0  0  0  0  0  0  0  0  0
   22.0581   10.7354   27.2248 O   0  0  0  0  0  0  0  0  0  0  0  0
   19.9436   11.6423   26.2525 C   0  0  0  0  0  0  0  0  0  0  0  0
   19.7413   11.5080   24.8221 N   0  0  0  0  0  0  0  0  0  0  0  0
   20.2448   12.0875   23.7379 C   0  0  0  0  0  0  0  0  0  0  0  0
   21.4569   12.2101   23.6614 O   0  0  0  0  0  0  0  0  0  0  0  0
   19.0694   10.8228   24.6021 H   0  0  0  0  0  0  0  0  0  0  0  0
   19.4693   12.6179   22.6182 C   0  0  0  0  0  0  0  0  0  0  0  0
   18.7812   13.6568   22.7981 N   0  0  0  0  0  0  0  0  0  0  0  0
   19.4747   11.9413   21.2940 C   0  0  0  0  0  0  0  0  0  0  0  0
   19.5261   12.6550   20.0807 C   0  0  0  0  0  0  0  0  0  0  0  0
   19.5233   11.5072   18.7786 S   0  0  0  0  0  0  0  0  0  0  0  0
   19.4615   10.1805   19.8731 C   0  0  0  0  0  0  0  0  0  0  0  0
   19.4349    8.8836   19.4801 N   0  0  0  0  0  0  0  0  0  0  0  0
   19.4437   10.5718   21.1658 N   0  0  0  0  0  0  0  0  0  0  0  0
   19.4499    8.6593   18.5216 H   0  0  0  0  0  0  0  0  0  0  0  0
   19.4006    8.1659   20.1531 H   0  0  0  0  0  0  0  0  0  0  0  0
   18.7664   14.2319   23.9119 O   0  0  0  0  0  0  0  0  0  0  0  0
   18.8164   15.6551   23.9674 C   0  0  0  0  0  0  0  0  0  0  0  0
   20.7030    9.6191   30.0036 C   0  0  0  0  0  0  0  0  0  0  0  0
   20.6092   10.2218   31.0931 O   0  0  0  0  0  0  0  0  0  0  0  0
   21.6827    8.8858   29.7476 O   0  0  0  0  0  0  0  0  0  0  0  0
   21.7335    8.4425   28.9237 H   0  0  0  0  0  0  0  0  0  0  0  0
   18.3485    7.6881   29.1954 C   0  0  0  0  0  0  0  0  0  0  0  0
   17.0011    7.2731   30.2517 S   0  0  0  0  0  0  0  0  0  0  0  0
   15.7606    6.6038   29.3073 C   0  0  0  0  0  0  0  0  0  0  0  0
   14.7141    7.3614   28.9102 N   0  0  0  0  0  0  0  0  0  0  0  0
   13.7241    6.8274   28.1556 C   0  0  0  0  0  0  0  0  0  0  0  0
   12.7612    7.5454   27.8035 O   0  0  0  0  0  0  0  0  0  0  0  0
   13.7694    5.4948   27.7699 C   0  0  0  0  0  0  0  0  0  0  0  0
   12.8504    5.0119   27.0722 O   0  0  0  0  0  0  0  0  0  0  0  0
   14.7933    4.7161   28.1394 N   0  0  0  0  0  0  0  0  0  0  0  0
   15.8234    5.2512   28.9210 N   0  0  0  0  0  0  0  0  0  0  0  0
   16.9520    4.4143   29.3365 C   0  0  0  0  0  0  0  0  0  0  0  0
  3  2  1  0  0  0
  3  4  1  0  0  0
  2  1  1  0  0  0
 35 34  2  0  0  0
 33 34  2  0  0  0
 33 32  2  0  0  0
 31 32  1  0  0  0
 31 30  1  0  0  0
  1  6  1  0  0  0
  1  9  1  0  0  0
 34 36  1  0  0  0
  4  5  1  0  0  0
  4 30  1  0  0  0
 12 11  2  0  0  0
 32 39  1  0  0  0
 27 26  2  0  0  0
  5  6  1  0  0  0
  5 26  1  0  0  0
  6  7  1  0  0  0
 26 28  1  0  0  0
  9  7  1  0  0  0
  9 10  1  0  0  0
 36 37  2  0  0  0
 36 38  2  0  0  0
 39 38  1  0  0  0
 39 40  1  0  0  0
 11 10  1  0  0  0
 11 14  1  0  0  0
  7  8  2  0  0  0
 25 24  1  0  0  0
 24 15  1  0  0  0
 14 15  2  0  0  0
 14 16  1  0  0  0
 17 16  1  0  0  0
 17 18  1  0  0  0
 16 21  2  0  0  0
 18 19  1  0  0  0
 21 19  2  0  0  0
 19 20  1  0  0  0
 10 13  1  0  0  0
 20 22  1  0  0  0
 20 23  1  0  0  0
 28 29  1  0  0  0
M  END
> <REMARK>
 800 SITE_DESCRIPTION: binding site for residue 9F2 B 301                 

> <SITE>
   2 AC3  6 THR B 239  9F2 B 301                                          

> <minimizedAffinity>
-6.07203

> <CNNscore>
0.1586661190

> <CNNaffinity>
5.1287984848

> <CNN_VS>
0.8137665391

> <CNNaffinity_variance>
0.1317298859

$$$$



 40 43  0  0  0  0  0  0  0  0999 V2000
   19.6678    9.8516   30.8863 C   0  0  0  0  0  0  0  0  0  0  0  0
   20.0739    8.3251   30.1432 S   0  0  0  0  0  0  0  0  0  0  0  0
   21.6985    8.0979   30.8031 C   0  0  0  0  0  0  0  0  0  0  0  0
   22.4465    9.4241   30.7860 C   0  0  0  0  0  0  0  0  0  0  0  0
   21.9763   10.5015   31.4406 C   0  0  0  0  0  0  0  0  0  0  0  0
   20.6997   10.7856   31.2093 N   0  0  0  0  0  0  0  0  0  0  0  0
   19.9869   11.8774   31.0700 C   0  0  0  0  0  0  0  0  0  0  0  0
   20.1610   13.0710   31.2604 O   0  0  0  0  0  0  0  0  0  0  0  0
   18.8130   11.0876   30.5618 C   0  0  0  0  0  0  0  0  0  0  0  0
   18.0178   11.1982   29.3533 N   0  0  0  0  0  0  0  0  0  0  0  0
   16.7783   10.8714   29.0044 C   0  0  0  0  0  0  0  0  0  0  0  0
   15.8684   11.1798   29.7574 O   0  0  0  0  0  0  0  0  0  0  0  0
   18.5166   11.6157   28.6142 H   0  0  0  0  0  0  0  0  0  0  0  0
   16.3978   10.1482   27.7925 C   0  0  0  0  0  0  0  0  0  0  0  0
   16.8213   10.5643   26.6823 N   0  0  0  0  0  0  0  0  0  0  0  0
   15.5154    8.9530   27.8589 C   0  0  0  0  0  0  0  0  0  0  0  0
   15.9598    7.6645   27.5036 C   0  0  0  0  0  0  0  0  0  0  0  0
   14.6417    6.5578   27.7276 S   0  0  0  0  0  0  0  0  0  0  0  0
   13.6017    7.8176   28.2691 C   0  0  0  0  0  0  0  0  0  0  0  0
   12.3131    7.6200   28.6402 N   0  0  0  0  0  0  0  0  0  0  0  0
   14.2091    9.0240   28.2854 N   0  0  0  0  0  0  0  0  0  0  0  0
   11.9244    6.7161   28.6071 H   0  0  0  0  0  0  0  0  0  0  0  0
   11.7659    8.3804   28.9429 H   0  0  0  0  0  0  0  0  0  0  0  0
   17.5619   11.5735   26.6153 O   0  0  0  0  0  0  0  0  0  0  0  0
   17.4293   12.4694   25.5150 C   0  0  0  0  0  0  0  0  0  0  0  0
   22.7521   11.3588   32.3368 C   0  0  0  0  0  0  0  0  0  0  0  0
   22.9660   10.9617   33.5011 O   0  0  0  0  0  0  0  0  0  0  0  0
   23.1759   12.4653   31.9381 O   0  0  0  0  0  0  0  0  0  0  0  0
   23.0041   12.7442   31.0602 H   0  0  0  0  0  0  0  0  0  0  0  0
   23.7139    9.5154   29.9697 C   0  0  0  0  0  0  0  0  0  0  0  0
   23.3289    9.8589   28.2853 S   0  0  0  0  0  0  0  0  0  0  0  0
   22.5612   11.3697   28.2039 C   0  0  0  0  0  0  0  0  0  0  0  0
   23.1699   12.4767   28.6843 N   0  0  0  0  0  0  0  0  0  0  0  0
   22.5575   13.6831   28.6187 C   0  0  0  0  0  0  0  0  0  0  0  0
   23.1367   14.6946   29.0747 O   0  0  0  0  0  0  0  0  0  0  0  0
   21.2970   13.8062   28.0505 C   0  0  0  0  0  0  0  0  0  0  0  0
   20.7408   14.9251   27.9941 O   0  0  0  0  0  0  0  0  0  0  0  0
   20.6666   12.7328   27.5591 N   0  0  0  0  0  0  0  0  0  0  0  0
   21.2842   11.4784   27.6208 N   0  0  0  0  0  0  0  0  0  0  0  0
   20.6095   10.2914   27.0894 C   0  0  0  0  0  0  0  0  0  0  0  0
  3  2  1  0  0  0
  3  4  1  0  0  0
  2  1  1  0  0  0
 35 34  2  0  0  0
 33 34  2  0  0  0
 33 32  2  0  0  0
 31 32  1  0  0  0
 31 30  1  0  0  0
  1  6  1  0  0  0
  1  9  1  0  0  0
 34 36  1  0  0  0
  4  5  1  0  0  0
  4 30  1  0  0  0
 12 11  2  0  0  0
 32 39  1  0  0  0
 27 26  2  0  0  0
  5  6  1  0  0  0
  5 26  1  0  0  0
  6  7  1  0  0  0
 26 28  1  0  0  0
  9  7  1  0  0  0
  9 10  1  0  0  0
 36 37  2  0  0  0
 36 38  2  0  0  0
 39 38  1  0  0  0
 39 40  1  0  0  0
 11 10  1  0  0  0
 11 14  1  0  0  0
  7  8  2  0  0  0
 25 24  1  0  0  0
 24 15  1  0  0  0
 14 15  2  0  0  0
 14 16  1  0  0  0
 17 16  1  0  0  0
 17 18  1  0  0  0
 16 21  2  0  0  0
 18 19  1  0  0  0
 21 19  2  0  0  0
 19 20  1  0  0  0
 10 13  1  0  0  0
 20 22  1  0  0  0
 20 23  1  0  0  0
 28 29  1  0  0  0
M  END
> <REMARK>
 800 SITE_DESCRIPTION: binding site for residue 9F2 B 301                 

> <SITE>
   2 AC3  6 THR B 239  9F2 B 301                                          

> <minimizedAffinity>
-6.11641

> <CNNscore>
0.1579539925

> <CNNaffinity>
4.8233141899

> <CNN_VS>
0.7618617415

> <CNNaffinity_variance>
0.9677686691

$$$$
