NXL


 21 21  0  0  0  0  0  0  0  0999 V2000
   -8.8810   -5.4928   -1.2523 O   0  0  0  0  0  0  0  0  0  0  0  0
   -7.7973   -6.0276   -1.1458 C   0  0  0  0  0  0  0  0  0  0  0  0
   -7.2577   -6.2195    0.0738 N   0  0  0  0  0  0  0  0  0  0  0  0
   -7.9155   -5.6888    1.2758 C   0  0  0  0  0  0  0  0  0  0  0  0
   -6.0027   -6.9678    0.2285 C   0  0  0  0  0  0  0  0  0  0  0  0
   -6.2223   -8.0932    1.2441 C   0  0  0  0  0  0  0  0  0  0  0  0
   -6.7640   -7.5019    2.5467 C   0  0  0  0  0  0  0  0  0  0  0  0
   -8.1094   -6.8324    2.2776 C   0  0  0  0  0  0  0  0  0  0  0  0
   -5.5993   -7.5563   -1.0983 C   0  0  0  0  0  0  0  0  0  0  0  0
   -4.9673   -6.8905   -1.8910 O   0  0  0  0  0  0  0  0  0  0  0  0
   -5.9397   -8.8241   -1.4052 N   0  0  0  0  0  0  0  0  0  0  0  0
   -6.4443   -9.3570   -0.7715 H   0  0  0  0  0  0  0  0  0  0  0  0
   -5.6799   -9.2037   -2.2594 H   0  0  0  0  0  0  0  0  0  0  0  0
   -8.6476   -6.2963    3.5350 N   0  0  0  0  0  0  0  0  0  0  0  0
   -7.9776   -5.6915    3.9855 H   0  0  0  0  0  0  0  0  0  0  0  0
   -9.0637   -7.3765    4.4300 O   0  0  0  0  0  0  0  0  0  0  0  0
  -10.5651   -7.6238    4.4462 S   0  0  0  0  0  0  0  0  0  0  0  0
  -11.2075   -6.5501    3.5784 O   0  0  0  0  0  0  0  0  0  0  0  0
  -10.7748   -8.8596    3.7773 O   0  0  0  0  0  0  0  0  0  0  0  0
  -10.9975   -7.3760    5.7772 O   0  0  0  0  0  0  0  0  0  0  0  0
  -12.1712   -6.6162    3.5204 H   0  0  0  0  0  0  0  0  0  0  0  0
  8 14  1  0  0  0
  4  8  1  0  0  0
  3  4  1  0  0  0
 16 17  1  0  0  0
  7  8  1  0  0  0
  2  3  1  0  0  0
  1  2  2  0  0  0
 17 20  2  0  0  0
  3  5  1  0  0  0
 17 19  2  0  0  0
 17 18  1  0  0  0
  9 10  2  0  0  0
  6  7  1  0  0  0
  5  9  1  0  0  0
  5  6  1  0  0  0
  9 11  1  0  0  0
 14 16  1  0  0  0
 11 12  1  0  0  0
 11 13  1  0  0  0
 14 15  1  0  0  0
 18 21  1  0  0  0
M  END
> <OPENEYE_ISO_SMILES>
C1C[C@H](N(C[C@@H]1NOS(=O)(=O)O)C=O)C(=O)N

> <OPENEYE_INCHI>
InChI=1S/C7H13N3O6S/c8-7(12)6-2-1-5(3-10(6)4-11)9-16-17(13,14)15/h4-6,9H,1-3H2,(H2,8,12)(H,13,14,15)/t5-,6+/m1/s1

> <OPENEYE_INCHIKEY>
WJDGWXPPFHLLNL-RITPCOANSA-N

> <FORMULA>
C7H13N3O6S

> <minimizedAffinity>
-4.47125

> <CNNscore>
0.5960347056

> <CNNaffinity>
4.2106103897

> <CNN_VS>
2.5096700191

> <CNNaffinity_variance>
0.1237641349

$$$$
NXL


 21 21  0  0  0  0  0  0  0  0999 V2000
   -7.5713   -8.5489   -1.8495 O   0  0  0  0  0  0  0  0  0  0  0  0
   -7.6288   -9.7063   -2.2085 C   0  0  0  0  0  0  0  0  0  0  0  0
   -7.6385  -10.6956   -1.2938 N   0  0  0  0  0  0  0  0  0  0  0  0
   -7.4682  -10.3965    0.1347 C   0  0  0  0  0  0  0  0  0  0  0  0
   -7.8244  -12.0940   -1.7046 C   0  0  0  0  0  0  0  0  0  0  0  0
   -8.9845  -12.6926   -0.9035 C   0  0  0  0  0  0  0  0  0  0  0  0
   -8.7164  -12.5089    0.5912 C   0  0  0  0  0  0  0  0  0  0  0  0
   -8.6341  -11.0184    0.9112 C   0  0  0  0  0  0  0  0  0  0  0  0
   -8.1445  -12.1495   -3.1757 C   0  0  0  0  0  0  0  0  0  0  0  0
   -9.2993  -12.1458   -3.5464 O   0  0  0  0  0  0  0  0  0  0  0  0
   -7.1474  -12.2024   -4.0813 N   0  0  0  0  0  0  0  0  0  0  0  0
   -6.2239  -12.2045   -3.7854 H   0  0  0  0  0  0  0  0  0  0  0  0
   -7.3529  -12.2378   -5.0288 H   0  0  0  0  0  0  0  0  0  0  0  0
   -8.4133  -10.8404    2.3526 N   0  0  0  0  0  0  0  0  0  0  0  0
   -8.5594  -11.7061    2.8496 H   0  0  0  0  0  0  0  0  0  0  0  0
   -9.2668   -9.7787    2.8867 O   0  0  0  0  0  0  0  0  0  0  0  0
  -10.1033  -10.2009    4.0857 S   0  0  0  0  0  0  0  0  0  0  0  0
  -10.6960  -11.5659    3.7630 O   0  0  0  0  0  0  0  0  0  0  0  0
   -9.1935  -10.4015    5.1584 O   0  0  0  0  0  0  0  0  0  0  0  0
  -11.1958   -9.2942    4.1510 O   0  0  0  0  0  0  0  0  0  0  0  0
  -11.2515  -11.9296    4.4669 H   0  0  0  0  0  0  0  0  0  0  0  0
  8 14  1  0  0  0
  4  8  1  0  0  0
  3  4  1  0  0  0
 16 17  1  0  0  0
  7  8  1  0  0  0
  2  3  1  0  0  0
  1  2  2  0  0  0
 17 20  2  0  0  0
  3  5  1  0  0  0
 17 19  2  0  0  0
 17 18  1  0  0  0
  9 10  2  0  0  0
  6  7  1  0  0  0
  5  9  1  0  0  0
  5  6  1  0  0  0
  9 11  1  0  0  0
 14 16  1  0  0  0
 11 12  1  0  0  0
 11 13  1  0  0  0
 14 15  1  0  0  0
 18 21  1  0  0  0
M  END
> <OPENEYE_ISO_SMILES>
C1C[C@H](N(C[C@@H]1NOS(=O)(=O)O)C=O)C(=O)N

> <OPENEYE_INCHI>
InChI=1S/C7H13N3O6S/c8-7(12)6-2-1-5(3-10(6)4-11)9-16-17(13,14)15/h4-6,9H,1-3H2,(H2,8,12)(H,13,14,15)/t5-,6+/m1/s1

> <OPENEYE_INCHIKEY>
WJDGWXPPFHLLNL-RITPCOANSA-N

> <FORMULA>
C7H13N3O6S

> <minimizedAffinity>
-4.51113

> <CNNscore>
0.5648798943

> <CNNaffinity>
3.9334959984

> <CNN_VS>
2.2219529152

> <CNNaffinity_variance>
0.0237484444

$$$$
NXL


 21 21  0  0  0  0  0  0  0  0999 V2000
   -9.3333   -6.1508    4.7470 O   0  0  0  0  0  0  0  0  0  0  0  0
   -9.4757   -7.3183    4.4495 C   0  0  0  0  0  0  0  0  0  0  0  0
   -8.6610   -7.8856    3.5385 N   0  0  0  0  0  0  0  0  0  0  0  0
   -7.6687   -7.0783    2.8155 C   0  0  0  0  0  0  0  0  0  0  0  0
   -8.7440   -9.3243    3.2521 C   0  0  0  0  0  0  0  0  0  0  0  0
   -7.3509   -9.9400    3.4145 C   0  0  0  0  0  0  0  0  0  0  0  0
   -6.3559   -9.1820    2.5339 C   0  0  0  0  0  0  0  0  0  0  0  0
   -6.2894   -7.7248    2.9842 C   0  0  0  0  0  0  0  0  0  0  0  0
   -9.7001   -9.9765    4.2164 C   0  0  0  0  0  0  0  0  0  0  0  0
  -10.8851  -10.0192    3.9614 O   0  0  0  0  0  0  0  0  0  0  0  0
   -9.2391  -10.5141    5.3635 N   0  0  0  0  0  0  0  0  0  0  0  0
   -8.2917  -10.4810    5.5674 H   0  0  0  0  0  0  0  0  0  0  0  0
   -9.8543  -10.9345    5.9848 H   0  0  0  0  0  0  0  0  0  0  0  0
   -5.3070   -7.0048    2.1629 N   0  0  0  0  0  0  0  0  0  0  0  0
   -4.9206   -6.2210    2.6668 H   0  0  0  0  0  0  0  0  0  0  0  0
   -5.8983   -6.5735    0.8959 O   0  0  0  0  0  0  0  0  0  0  0  0
   -5.0828   -6.9565   -0.3305 S   0  0  0  0  0  0  0  0  0  0  0  0
   -4.4827   -5.6739   -0.8905 O   0  0  0  0  0  0  0  0  0  0  0  0
   -3.9933   -7.7373    0.1408 O   0  0  0  0  0  0  0  0  0  0  0  0
   -6.0119   -7.4217   -1.3000 O   0  0  0  0  0  0  0  0  0  0  0  0
   -3.9398   -5.8063   -1.6805 H   0  0  0  0  0  0  0  0  0  0  0  0
  8 14  1  0  0  0
  4  8  1  0  0  0
  3  4  1  0  0  0
 16 17  1  0  0  0
  7  8  1  0  0  0
  2  3  1  0  0  0
  1  2  2  0  0  0
 17 20  2  0  0  0
  3  5  1  0  0  0
 17 19  2  0  0  0
 17 18  1  0  0  0
  9 10  2  0  0  0
  6  7  1  0  0  0
  5  9  1  0  0  0
  5  6  1  0  0  0
  9 11  1  0  0  0
 14 16  1  0  0  0
 11 12  1  0  0  0
 11 13  1  0  0  0
 14 15  1  0  0  0
 18 21  1  0  0  0
M  END
> <OPENEYE_ISO_SMILES>
C1C[C@H](N(C[C@@H]1NOS(=O)(=O)O)C=O)C(=O)N

> <OPENEYE_INCHI>
InChI=1S/C7H13N3O6S/c8-7(12)6-2-1-5(3-10(6)4-11)9-16-17(13,14)15/h4-6,9H,1-3H2,(H2,8,12)(H,13,14,15)/t5-,6+/m1/s1

> <OPENEYE_INCHIKEY>
WJDGWXPPFHLLNL-RITPCOANSA-N

> <FORMULA>
C7H13N3O6S

> <minimizedAffinity>
-4.41400

> <CNNscore>
0.4859699011

> <CNNaffinity>
4.1173133850

> <CNN_VS>
2.0008904934

> <CNNaffinity_variance>
0.1323343813

$$$$
NXL


 21 21  0  0  0  0  0  0  0  0999 V2000
   -7.7106  -12.4173   -2.7990 O   0  0  0  0  0  0  0  0  0  0  0  0
   -7.5698  -13.4507   -2.1793 C   0  0  0  0  0  0  0  0  0  0  0  0
   -7.6315  -13.4429   -0.8333 N   0  0  0  0  0  0  0  0  0  0  0  0
   -7.7575  -12.1777   -0.0967 C   0  0  0  0  0  0  0  0  0  0  0  0
   -7.5792  -14.6995   -0.0736 C   0  0  0  0  0  0  0  0  0  0  0  0
   -8.7890  -14.7589    0.8640 C   0  0  0  0  0  0  0  0  0  0  0  0
   -8.8182  -13.5011    1.7341 C   0  0  0  0  0  0  0  0  0  0  0  0
   -8.9658  -12.2715    0.8415 C   0  0  0  0  0  0  0  0  0  0  0  0
   -7.6198  -15.8666   -1.0253 C   0  0  0  0  0  0  0  0  0  0  0  0
   -6.5871  -16.3772   -1.4045 O   0  0  0  0  0  0  0  0  0  0  0  0
   -8.8044  -16.3451   -1.4555 N   0  0  0  0  0  0  0  0  0  0  0  0
   -9.6304  -15.9378   -1.1519 H   0  0  0  0  0  0  0  0  0  0  0  0
   -8.8312  -17.0970   -2.0681 H   0  0  0  0  0  0  0  0  0  0  0  0
   -9.0308  -11.0660    1.6786 N   0  0  0  0  0  0  0  0  0  0  0  0
   -8.1410  -10.5910    1.6969 H   0  0  0  0  0  0  0  0  0  0  0  0
   -9.4791  -11.3917    3.0329 O   0  0  0  0  0  0  0  0  0  0  0  0
   -9.6764  -10.1775    3.9288 S   0  0  0  0  0  0  0  0  0  0  0  0
  -11.1632   -9.8490    3.9207 O   0  0  0  0  0  0  0  0  0  0  0  0
   -9.3655  -10.5994    5.2494 O   0  0  0  0  0  0  0  0  0  0  0  0
   -9.0221   -9.0933    3.2837 O   0  0  0  0  0  0  0  0  0  0  0  0
  -11.3998   -9.0845    4.4648 H   0  0  0  0  0  0  0  0  0  0  0  0
  8 14  1  0  0  0
  4  8  1  0  0  0
  3  4  1  0  0  0
 16 17  1  0  0  0
  7  8  1  0  0  0
  2  3  1  0  0  0
  1  2  2  0  0  0
 17 20  2  0  0  0
  3  5  1  0  0  0
 17 19  2  0  0  0
 17 18  1  0  0  0
  9 10  2  0  0  0
  6  7  1  0  0  0
  5  9  1  0  0  0
  5  6  1  0  0  0
  9 11  1  0  0  0
 14 16  1  0  0  0
 11 12  1  0  0  0
 11 13  1  0  0  0
 14 15  1  0  0  0
 18 21  1  0  0  0
M  END
> <OPENEYE_ISO_SMILES>
C1C[C@H](N(C[C@@H]1NOS(=O)(=O)O)C=O)C(=O)N

> <OPENEYE_INCHI>
InChI=1S/C7H13N3O6S/c8-7(12)6-2-1-5(3-10(6)4-11)9-16-17(13,14)15/h4-6,9H,1-3H2,(H2,8,12)(H,13,14,15)/t5-,6+/m1/s1

> <OPENEYE_INCHIKEY>
WJDGWXPPFHLLNL-RITPCOANSA-N

> <FORMULA>
C7H13N3O6S

> <minimizedAffinity>
-4.48687

> <CNNscore>
0.4664367437

> <CNNaffinity>
3.9232475758

> <CNN_VS>
1.8299468756

> <CNNaffinity_variance>
0.0529904589

$$$$
NXL


 21 21  0  0  0  0  0  0  0  0999 V2000
   -8.7542   -5.4725   -0.1838 O   0  0  0  0  0  0  0  0  0  0  0  0
   -8.0494   -6.2041   -0.8470 C   0  0  0  0  0  0  0  0  0  0  0  0
   -7.3620   -7.1985   -0.2519 N   0  0  0  0  0  0  0  0  0  0  0  0
   -7.3672   -7.3418    1.2105 C   0  0  0  0  0  0  0  0  0  0  0  0
   -6.5967   -8.1639   -1.0527 C   0  0  0  0  0  0  0  0  0  0  0  0
   -7.0349   -9.5802   -0.6679 C   0  0  0  0  0  0  0  0  0  0  0  0
   -6.8876   -9.7633    0.8436 C   0  0  0  0  0  0  0  0  0  0  0  0
   -7.7955   -8.7701    1.5646 C   0  0  0  0  0  0  0  0  0  0  0  0
   -6.8666   -7.9317   -2.5165 C   0  0  0  0  0  0  0  0  0  0  0  0
   -6.1837   -7.1496   -3.1435 O   0  0  0  0  0  0  0  0  0  0  0  0
   -7.8672   -8.5938   -3.1311 N   0  0  0  0  0  0  0  0  0  0  0  0
   -8.4130   -9.2197   -2.6305 H   0  0  0  0  0  0  0  0  0  0  0  0
   -8.0414   -8.4449   -4.0738 H   0  0  0  0  0  0  0  0  0  0  0  0
   -7.6822   -8.9701    3.0156 N   0  0  0  0  0  0  0  0  0  0  0  0
   -6.7151   -9.0210    3.2983 H   0  0  0  0  0  0  0  0  0  0  0  0
   -8.4158  -10.1630    3.4393 O   0  0  0  0  0  0  0  0  0  0  0  0
   -9.5534   -9.8786    4.4093 S   0  0  0  0  0  0  0  0  0  0  0  0
  -10.8518  -10.2307    3.6959 O   0  0  0  0  0  0  0  0  0  0  0  0
   -9.4147  -10.8097    5.4735 O   0  0  0  0  0  0  0  0  0  0  0  0
   -9.5712   -8.4710    4.6039 O   0  0  0  0  0  0  0  0  0  0  0  0
  -11.6455  -10.0851    4.2298 H   0  0  0  0  0  0  0  0  0  0  0  0
  8 14  1  0  0  0
  4  8  1  0  0  0
  3  4  1  0  0  0
 16 17  1  0  0  0
  7  8  1  0  0  0
  2  3  1  0  0  0
  1  2  2  0  0  0
 17 20  2  0  0  0
  3  5  1  0  0  0
 17 19  2  0  0  0
 17 18  1  0  0  0
  9 10  2  0  0  0
  6  7  1  0  0  0
  5  9  1  0  0  0
  5  6  1  0  0  0
  9 11  1  0  0  0
 14 16  1  0  0  0
 11 12  1  0  0  0
 11 13  1  0  0  0
 14 15  1  0  0  0
 18 21  1  0  0  0
M  END
> <OPENEYE_ISO_SMILES>
C1C[C@H](N(C[C@@H]1NOS(=O)(=O)O)C=O)C(=O)N

> <OPENEYE_INCHI>
InChI=1S/C7H13N3O6S/c8-7(12)6-2-1-5(3-10(6)4-11)9-16-17(13,14)15/h4-6,9H,1-3H2,(H2,8,12)(H,13,14,15)/t5-,6+/m1/s1

> <OPENEYE_INCHIKEY>
WJDGWXPPFHLLNL-RITPCOANSA-N

> <FORMULA>
C7H13N3O6S

> <minimizedAffinity>
-4.52484

> <CNNscore>
0.4225605726

> <CNNaffinity>
3.9072387218

> <CNN_VS>
1.6510450840

> <CNNaffinity_variance>
0.0900391489

$$$$
NXL


 21 21  0  0  0  0  0  0  0  0999 V2000
   -7.8738   -9.9433    1.1367 O   0  0  0  0  0  0  0  0  0  0  0  0
   -8.3432   -9.8630    2.2525 C   0  0  0  0  0  0  0  0  0  0  0  0
   -8.2681   -8.7026    2.9332 N   0  0  0  0  0  0  0  0  0  0  0  0
   -7.5252   -7.5595    2.3849 C   0  0  0  0  0  0  0  0  0  0  0  0
   -8.9316   -8.5537    4.2357 C   0  0  0  0  0  0  0  0  0  0  0  0
   -9.8343   -7.3171    4.1900 C   0  0  0  0  0  0  0  0  0  0  0  0
   -9.0082   -6.1018    3.7649 C   0  0  0  0  0  0  0  0  0  0  0  0
   -8.4477   -6.3358    2.3643 C   0  0  0  0  0  0  0  0  0  0  0  0
   -9.7640   -9.7765    4.5207 C   0  0  0  0  0  0  0  0  0  0  0  0
  -10.8882   -9.8637    4.0738 O   0  0  0  0  0  0  0  0  0  0  0  0
   -9.2595  -10.7756    5.2722 N   0  0  0  0  0  0  0  0  0  0  0  0
   -8.3605  -10.7068    5.6290 H   0  0  0  0  0  0  0  0  0  0  0  0
   -9.7949  -11.5635    5.4558 H   0  0  0  0  0  0  0  0  0  0  0  0
   -7.6847   -5.1541    1.9406 N   0  0  0  0  0  0  0  0  0  0  0  0
   -6.8103   -5.4226    1.5152 H   0  0  0  0  0  0  0  0  0  0  0  0
   -7.4633   -4.2426    3.0635 O   0  0  0  0  0  0  0  0  0  0  0  0
   -5.9990   -3.9124    3.3138 S   0  0  0  0  0  0  0  0  0  0  0  0
   -5.2360   -4.2578    2.0422 O   0  0  0  0  0  0  0  0  0  0  0  0
   -5.9252   -2.5006    3.4555 O   0  0  0  0  0  0  0  0  0  0  0  0
   -5.5487   -4.8193    4.3111 O   0  0  0  0  0  0  0  0  0  0  0  0
   -4.2854   -4.0843    2.0948 H   0  0  0  0  0  0  0  0  0  0  0  0
  8 14  1  0  0  0
  4  8  1  0  0  0
  3  4  1  0  0  0
 16 17  1  0  0  0
  7  8  1  0  0  0
  2  3  1  0  0  0
  1  2  2  0  0  0
 17 20  2  0  0  0
  3  5  1  0  0  0
 17 19  2  0  0  0
 17 18  1  0  0  0
  9 10  2  0  0  0
  6  7  1  0  0  0
  5  9  1  0  0  0
  5  6  1  0  0  0
  9 11  1  0  0  0
 14 16  1  0  0  0
 11 12  1  0  0  0
 11 13  1  0  0  0
 14 15  1  0  0  0
 18 21  1  0  0  0
M  END
> <OPENEYE_ISO_SMILES>
C1C[C@H](N(C[C@@H]1NOS(=O)(=O)O)C=O)C(=O)N

> <OPENEYE_INCHI>
InChI=1S/C7H13N3O6S/c8-7(12)6-2-1-5(3-10(6)4-11)9-16-17(13,14)15/h4-6,9H,1-3H2,(H2,8,12)(H,13,14,15)/t5-,6+/m1/s1

> <OPENEYE_INCHIKEY>
WJDGWXPPFHLLNL-RITPCOANSA-N

> <FORMULA>
C7H13N3O6S

> <minimizedAffinity>
-4.85552

> <CNNscore>
0.4179953337

> <CNNaffinity>
3.9419131279

> <CNN_VS>
1.6477012634

> <CNNaffinity_variance>
0.0810329840

$$$$
NXL


 21 21  0  0  0  0  0  0  0  0999 V2000
   -7.6080  -10.4471    0.7911 O   0  0  0  0  0  0  0  0  0  0  0  0
   -8.1233   -9.9655    1.7782 C   0  0  0  0  0  0  0  0  0  0  0  0
   -8.7512  -10.7608    2.6664 N   0  0  0  0  0  0  0  0  0  0  0  0
   -8.9172  -12.1962    2.3999 C   0  0  0  0  0  0  0  0  0  0  0  0
   -9.2788  -10.2106    3.9225 C   0  0  0  0  0  0  0  0  0  0  0  0
   -8.7193  -11.0273    5.0913 C   0  0  0  0  0  0  0  0  0  0  0  0
   -9.0367  -12.5077    4.8732 C   0  0  0  0  0  0  0  0  0  0  0  0
   -8.3620  -12.9863    3.5901 C   0  0  0  0  0  0  0  0  0  0  0  0
   -8.8532   -8.7722    4.0616 C   0  0  0  0  0  0  0  0  0  0  0  0
   -7.7584   -8.5035    4.5090 O   0  0  0  0  0  0  0  0  0  0  0  0
   -9.6887   -7.7825    3.6879 N   0  0  0  0  0  0  0  0  0  0  0  0
  -10.5638   -7.9969    3.3294 H   0  0  0  0  0  0  0  0  0  0  0  0
   -9.4150   -6.8560    3.7770 H   0  0  0  0  0  0  0  0  0  0  0  0
   -8.6360  -14.4169    3.3992 N   0  0  0  0  0  0  0  0  0  0  0  0
   -9.3648  -14.7308    4.0220 H   0  0  0  0  0  0  0  0  0  0  0  0
   -7.4196  -15.2114    3.5730 O   0  0  0  0  0  0  0  0  0  0  0  0
   -7.1508  -16.1887    2.4380 S   0  0  0  0  0  0  0  0  0  0  0  0
   -7.3755  -15.4363    1.1334 O   0  0  0  0  0  0  0  0  0  0  0  0
   -5.7642  -16.4938    2.4919 O   0  0  0  0  0  0  0  0  0  0  0  0
   -8.1688  -17.1777    2.5114 O   0  0  0  0  0  0  0  0  0  0  0  0
   -7.2298  -15.9718    0.3406 H   0  0  0  0  0  0  0  0  0  0  0  0
  8 14  1  0  0  0
  4  8  1  0  0  0
  3  4  1  0  0  0
 16 17  1  0  0  0
  7  8  1  0  0  0
  2  3  1  0  0  0
  1  2  2  0  0  0
 17 20  2  0  0  0
  3  5  1  0  0  0
 17 19  2  0  0  0
 17 18  1  0  0  0
  9 10  2  0  0  0
  6  7  1  0  0  0
  5  9  1  0  0  0
  5  6  1  0  0  0
  9 11  1  0  0  0
 14 16  1  0  0  0
 11 12  1  0  0  0
 11 13  1  0  0  0
 14 15  1  0  0  0
 18 21  1  0  0  0
M  END
> <OPENEYE_ISO_SMILES>
C1C[C@H](N(C[C@@H]1NOS(=O)(=O)O)C=O)C(=O)N

> <OPENEYE_INCHI>
InChI=1S/C7H13N3O6S/c8-7(12)6-2-1-5(3-10(6)4-11)9-16-17(13,14)15/h4-6,9H,1-3H2,(H2,8,12)(H,13,14,15)/t5-,6+/m1/s1

> <OPENEYE_INCHIKEY>
WJDGWXPPFHLLNL-RITPCOANSA-N

> <FORMULA>
C7H13N3O6S

> <minimizedAffinity>
-4.63796

> <CNNscore>
0.3859180808

> <CNNaffinity>
3.7299931049

> <CNN_VS>
1.4394717216

> <CNNaffinity_variance>
0.0451111533

$$$$
NXL


 21 21  0  0  0  0  0  0  0  0999 V2000
   -8.3850  -10.8727    0.9594 O   0  0  0  0  0  0  0  0  0  0  0  0
   -8.6420  -10.5239    2.0926 C   0  0  0  0  0  0  0  0  0  0  0  0
   -8.1983   -9.3364    2.5490 N   0  0  0  0  0  0  0  0  0  0  0  0
   -7.3104   -8.5025    1.7271 C   0  0  0  0  0  0  0  0  0  0  0  0
   -8.5966   -8.8475    3.8761 C   0  0  0  0  0  0  0  0  0  0  0  0
   -9.1895   -7.4431    3.7260 C   0  0  0  0  0  0  0  0  0  0  0  0
   -8.1859   -6.5439    3.0021 C   0  0  0  0  0  0  0  0  0  0  0  0
   -7.9213   -7.1022    1.6060 C   0  0  0  0  0  0  0  0  0  0  0  0
   -9.6301   -9.7719    4.4651 C   0  0  0  0  0  0  0  0  0  0  0  0
  -10.7867   -9.6962    4.1078 O   0  0  0  0  0  0  0  0  0  0  0  0
   -9.2699  -10.6847    5.3893 N   0  0  0  0  0  0  0  0  0  0  0  0
   -8.3452  -10.7461    5.6747 H   0  0  0  0  0  0  0  0  0  0  0  0
   -9.9349  -11.2805    5.7688 H   0  0  0  0  0  0  0  0  0  0  0  0
   -6.9857   -6.2191    0.8968 N   0  0  0  0  0  0  0  0  0  0  0  0
   -6.9311   -5.3169    1.3450 H   0  0  0  0  0  0  0  0  0  0  0  0
   -7.3584   -6.0831   -0.5116 O   0  0  0  0  0  0  0  0  0  0  0  0
   -7.8118   -4.6833   -0.8999 S   0  0  0  0  0  0  0  0  0  0  0  0
   -8.2090   -3.9665    0.3835 O   0  0  0  0  0  0  0  0  0  0  0  0
   -6.6613   -4.0125   -1.3950 O   0  0  0  0  0  0  0  0  0  0  0  0
   -9.0046   -4.8439   -1.6557 O   0  0  0  0  0  0  0  0  0  0  0  0
   -8.5161   -3.0589    0.2479 H   0  0  0  0  0  0  0  0  0  0  0  0
  8 14  1  0  0  0
  4  8  1  0  0  0
  3  4  1  0  0  0
 16 17  1  0  0  0
  7  8  1  0  0  0
  2  3  1  0  0  0
  1  2  2  0  0  0
 17 20  2  0  0  0
  3  5  1  0  0  0
 17 19  2  0  0  0
 17 18  1  0  0  0
  9 10  2  0  0  0
  6  7  1  0  0  0
  5  9  1  0  0  0
  5  6  1  0  0  0
  9 11  1  0  0  0
 14 16  1  0  0  0
 11 12  1  0  0  0
 11 13  1  0  0  0
 14 15  1  0  0  0
 18 21  1  0  0  0
M  END
> <OPENEYE_ISO_SMILES>
C1C[C@H](N(C[C@@H]1NOS(=O)(=O)O)C=O)C(=O)N

> <OPENEYE_INCHI>
InChI=1S/C7H13N3O6S/c8-7(12)6-2-1-5(3-10(6)4-11)9-16-17(13,14)15/h4-6,9H,1-3H2,(H2,8,12)(H,13,14,15)/t5-,6+/m1/s1

> <OPENEYE_INCHIKEY>
WJDGWXPPFHLLNL-RITPCOANSA-N

> <FORMULA>
C7H13N3O6S

> <minimizedAffinity>
-5.26264

> <CNNscore>
0.3804823458

> <CNNaffinity>
3.8498656750

> <CNN_VS>
1.4648059607

> <CNNaffinity_variance>
0.3782587945

$$$$
NXL


 21 21  0  0  0  0  0  0  0  0999 V2000
   -7.8660   -9.5524   -1.2892 O   0  0  0  0  0  0  0  0  0  0  0  0
   -7.7755  -10.7436   -1.5005 C   0  0  0  0  0  0  0  0  0  0  0  0
   -7.7827  -11.6128   -0.4710 N   0  0  0  0  0  0  0  0  0  0  0  0
   -7.7874  -11.1300    0.9168 C   0  0  0  0  0  0  0  0  0  0  0  0
   -7.7909  -13.0619   -0.7140 C   0  0  0  0  0  0  0  0  0  0  0  0
   -8.9634  -13.6829    0.0514 C   0  0  0  0  0  0  0  0  0  0  0  0
   -8.8668  -13.2955    1.5281 C   0  0  0  0  0  0  0  0  0  0  0  0
   -8.9608  -11.7775    1.6603 C   0  0  0  0  0  0  0  0  0  0  0  0
   -7.9537  -13.3254   -2.1883 C   0  0  0  0  0  0  0  0  0  0  0  0
   -6.9762  -13.4850   -2.8882 O   0  0  0  0  0  0  0  0  0  0  0  0
   -9.1865  -13.3850   -2.7306 N   0  0  0  0  0  0  0  0  0  0  0  0
   -9.9683  -13.2583   -2.1712 H   0  0  0  0  0  0  0  0  0  0  0  0
   -9.2920  -13.5550   -3.6799 H   0  0  0  0  0  0  0  0  0  0  0  0
   -8.9050  -11.4073    3.0808 N   0  0  0  0  0  0  0  0  0  0  0  0
   -7.9530  -11.3988    3.4144 H   0  0  0  0  0  0  0  0  0  0  0  0
   -9.7355  -12.3010    3.8886 O   0  0  0  0  0  0  0  0  0  0  0  0
   -9.1899  -12.5596    5.2855 S   0  0  0  0  0  0  0  0  0  0  0  0
   -9.2509  -11.2406    6.0438 O   0  0  0  0  0  0  0  0  0  0  0  0
  -10.1139  -13.4316    5.9215 O   0  0  0  0  0  0  0  0  0  0  0  0
   -7.8117  -12.8678    5.1264 O   0  0  0  0  0  0  0  0  0  0  0  0
   -8.9236  -11.2943    6.9529 H   0  0  0  0  0  0  0  0  0  0  0  0
  8 14  1  0  0  0
  4  8  1  0  0  0
  3  4  1  0  0  0
 16 17  1  0  0  0
  7  8  1  0  0  0
  2  3  1  0  0  0
  1  2  2  0  0  0
 17 20  2  0  0  0
  3  5  1  0  0  0
 17 19  2  0  0  0
 17 18  1  0  0  0
  9 10  2  0  0  0
  6  7  1  0  0  0
  5  9  1  0  0  0
  5  6  1  0  0  0
  9 11  1  0  0  0
 14 16  1  0  0  0
 11 12  1  0  0  0
 11 13  1  0  0  0
 14 15  1  0  0  0
 18 21  1  0  0  0
M  END
> <OPENEYE_ISO_SMILES>
C1C[C@H](N(C[C@@H]1NOS(=O)(=O)O)C=O)C(=O)N

> <OPENEYE_INCHI>
InChI=1S/C7H13N3O6S/c8-7(12)6-2-1-5(3-10(6)4-11)9-16-17(13,14)15/h4-6,9H,1-3H2,(H2,8,12)(H,13,14,15)/t5-,6+/m1/s1

> <OPENEYE_INCHIKEY>
WJDGWXPPFHLLNL-RITPCOANSA-N

> <FORMULA>
C7H13N3O6S

> <minimizedAffinity>
-4.05869

> <CNNscore>
0.3777922690

> <CNNaffinity>
3.8835663795

> <CNN_VS>
1.4671813250

> <CNNaffinity_variance>
0.0600723028

$$$$
