


 34 35  0  0  0  0  0  0  0  0999 V2000
   -9.6333  -11.8888    3.5011 C   0  0  0  0  0  0  0  0  0  0  0  0
   -8.3519   -6.5157    3.7943 C   0  0  0  0  0  0  0  0  0  0  0  0
   -7.2427   -8.9824    3.7865 C   0  0  0  0  0  0  0  0  0  0  0  0
   -8.4439   -8.0539    4.0433 C   0  0  0  0  0  0  0  0  0  0  0  0
   -9.6990   -8.5212    4.4622 C   0  0  0  0  0  0  0  0  0  0  0  0
   -9.9982   -9.7977    4.7169 N   0  0  0  0  0  0  0  0  0  0  0  0
   -7.3652  -10.6310    4.6237 S   0  0  0  0  0  0  0  0  0  0  0  0
   -9.1433  -10.9818    4.6268 C   0  0  0  0  0  0  0  0  0  0  0  0
  -10.8710   -7.5690    4.6632 C   0  0  0  0  0  0  0  0  0  0  0  0
  -11.2053   -6.8288    3.7406 O   0  0  0  0  0  0  0  0  0  0  0  0
  -11.4556   -7.5374    5.7048 O   0  0  0  0  0  0  0  0  0  0  0  0
  -11.1966   -8.1039    6.4048 H   0  0  0  0  0  0  0  0  0  0  0  0
   -7.2859   -5.7532    3.3833 O   0  0  0  0  0  0  0  0  0  0  0  0
   -7.6702   -4.4632    2.9980 C   0  0  0  0  0  0  0  0  0  0  0  0
   -8.9681   -4.1338    2.9050 N   0  0  0  0  0  0  0  0  0  0  0  0
   -6.7936   -3.6275    2.7492 O   0  0  0  0  0  0  0  0  0  0  0  0
   -9.2267   -3.2236    2.6331 H   0  0  0  0  0  0  0  0  0  0  0  0
   -9.6614   -4.8024    3.1087 H   0  0  0  0  0  0  0  0  0  0  0  0
   -9.7941  -13.1999    4.0594 N   0  0  0  0  0  0  0  0  0  0  0  0
  -10.9518  -13.7179    4.3089 C   0  0  0  0  0  0  0  0  0  0  0  0
  -11.9422  -12.8564    4.1136 O   0  0  0  0  0  0  0  0  0  0  0  0
   -8.9882  -13.7281    4.2613 H   0  0  0  0  0  0  0  0  0  0  0  0
  -11.1598  -15.2383    4.6785 C   0  0  0  0  0  0  0  0  0  0  0  0
  -10.4434  -16.3184    4.3625 N   0  0  0  0  0  0  0  0  0  0  0  0
  -14.4123  -16.2117    5.9613 C   0  0  0  0  0  0  0  0  0  0  0  0
  -14.4734  -16.6692    4.7106 C   0  0  0  0  0  0  0  0  0  0  0  0
  -13.2224  -15.6393    6.1722 C   0  0  0  0  0  0  0  0  0  0  0  0
  -13.2875  -16.3657    4.1104 O   0  0  0  0  0  0  0  0  0  0  0  0
  -12.5459  -15.6960    5.0328 C   0  0  0  0  0  0  0  0  0  0  0  0
   -9.0226  -16.8008    2.6264 C   0  0  0  0  0  0  0  0  0  0  0  0
   -9.1695  -16.1359    3.8944 O   0  0  0  0  0  0  0  0  0  0  0  0
   -8.7568  -11.5920    2.4648 C   0  0  0  0  0  0  0  0  0  0  0  0
   -9.1826  -10.8476    1.3321 O   0  0  0  0  0  0  0  0  0  0  0  0
   -9.8290  -11.3666    0.8284 H   0  0  0  0  0  0  0  0  0  0  0  0
 19  1  1  0  0  0
 19 20  1  0  0  0
  1  8  1  0  0  0
  1 32  1  0  0  0
 30 31  1  0  0  0
 25 26  2  0  0  0
 25 27  1  0  0  0
 26 28  1  0  0  0
 27 29  2  0  0  0
  2  4  2  0  0  0
  2 13  1  0  0  0
  3  4  1  0  0  0
  3  7  1  0  0  0
 14 15  1  0  0  0
 14 16  2  0  0  0
 14 13  1  0  0  0
  9  5  1  0  0  0
  9 10  2  0  0  0
  9 11  1  0  0  0
 20 23  1  0  0  0
 20 21  2  0  0  0
  4  5  1  0  0  0
 23 29  1  0  0  0
 23 24  2  0  0  0
  5  6  2  0  0  0
 32 33  1  0  0  0
 24 31  1  0  0  0
  6  8  1  0  0  0
 28 29  1  0  0  0
  7  8  1  0  0  0
 19 22  1  0  0  0
 33 34  1  0  0  0
 15 17  1  0  0  0
 15 18  1  0  0  0
 11 12  1  0  0  0
M  END
> <minimizedAffinity>
-7.79629

> <CNNscore>
0.6136640310

> <CNNaffinity>
5.3674798012

> <CNN_VS>
3.2938292027

> <CNNaffinity_variance>
0.0300202817

$$$$



 34 35  0  0  0  0  0  0  0  0999 V2000
  -11.7073  -15.7414    1.9044 C   0  0  0  0  0  0  0  0  0  0  0  0
   -8.7244  -12.5997    5.3439 C   0  0  0  0  0  0  0  0  0  0  0  0
   -8.6332  -13.8038    2.9238 C   0  0  0  0  0  0  0  0  0  0  0  0
   -9.2002  -13.7072    4.3522 C   0  0  0  0  0  0  0  0  0  0  0  0
  -10.2034  -14.5592    4.8386 C   0  0  0  0  0  0  0  0  0  0  0  0
  -10.7607  -15.5607    4.1528 N   0  0  0  0  0  0  0  0  0  0  0  0
   -8.9042  -15.4460    2.1092 S   0  0  0  0  0  0  0  0  0  0  0  0
  -10.4894  -16.0063    2.7857 C   0  0  0  0  0  0  0  0  0  0  0  0
  -10.7637  -14.3990    6.2462 C   0  0  0  0  0  0  0  0  0  0  0  0
  -10.0378  -14.6364    7.2094 O   0  0  0  0  0  0  0  0  0  0  0  0
  -11.8947  -14.0521    6.4134 O   0  0  0  0  0  0  0  0  0  0  0  0
  -12.4436  -13.8725    5.6755 H   0  0  0  0  0  0  0  0  0  0  0  0
   -7.7755  -11.6201    5.1796 O   0  0  0  0  0  0  0  0  0  0  0  0
   -8.3433  -10.3549    4.9871 C   0  0  0  0  0  0  0  0  0  0  0  0
   -9.6759  -10.1946    4.9866 N   0  0  0  0  0  0  0  0  0  0  0  0
   -7.5965   -9.3833    4.8226 O   0  0  0  0  0  0  0  0  0  0  0  0
  -10.0640   -9.3001    4.8503 H   0  0  0  0  0  0  0  0  0  0  0  0
  -10.2652  -10.9714    5.1225 H   0  0  0  0  0  0  0  0  0  0  0  0
  -12.8533  -16.2281    2.6160 N   0  0  0  0  0  0  0  0  0  0  0  0
  -13.9065  -15.5083    2.8241 C   0  0  0  0  0  0  0  0  0  0  0  0
  -13.7464  -14.2531    2.4240 O   0  0  0  0  0  0  0  0  0  0  0  0
  -12.8371  -17.1501    2.9608 H   0  0  0  0  0  0  0  0  0  0  0  0
  -15.2643  -16.0969    3.3731 C   0  0  0  0  0  0  0  0  0  0  0  0
  -16.5227  -15.9050    2.9738 N   0  0  0  0  0  0  0  0  0  0  0  0
  -15.8143  -17.2189    6.7805 C   0  0  0  0  0  0  0  0  0  0  0  0
  -14.4865  -17.1039    6.7510 C   0  0  0  0  0  0  0  0  0  0  0  0
  -16.3218  -16.8672    5.5944 C   0  0  0  0  0  0  0  0  0  0  0  0
  -14.1452  -16.6763    5.5022 O   0  0  0  0  0  0  0  0  0  0  0  0
  -15.3036  -16.5722    4.7975 C   0  0  0  0  0  0  0  0  0  0  0  0
  -16.8256  -16.4119    0.7564 C   0  0  0  0  0  0  0  0  0  0  0  0
  -16.7326  -15.3606    1.7349 O   0  0  0  0  0  0  0  0  0  0  0  0
  -11.3019  -16.2266    0.6674 C   0  0  0  0  0  0  0  0  0  0  0  0
  -11.4182  -15.4354   -0.5069 O   0  0  0  0  0  0  0  0  0  0  0  0
  -12.3561  -15.2934   -0.7095 H   0  0  0  0  0  0  0  0  0  0  0  0
 19  1  1  0  0  0
 19 20  1  0  0  0
  1  8  1  0  0  0
  1 32  1  0  0  0
 30 31  1  0  0  0
 25 26  2  0  0  0
 25 27  1  0  0  0
 26 28  1  0  0  0
 27 29  2  0  0  0
  2  4  2  0  0  0
  2 13  1  0  0  0
  3  4  1  0  0  0
  3  7  1  0  0  0
 14 15  1  0  0  0
 14 16  2  0  0  0
 14 13  1  0  0  0
  9  5  1  0  0  0
  9 10  2  0  0  0
  9 11  1  0  0  0
 20 23  1  0  0  0
 20 21  2  0  0  0
  4  5  1  0  0  0
 23 29  1  0  0  0
 23 24  2  0  0  0
  5  6  2  0  0  0
 32 33  1  0  0  0
 24 31  1  0  0  0
  6  8  1  0  0  0
 28 29  1  0  0  0
  7  8  1  0  0  0
 19 22  1  0  0  0
 33 34  1  0  0  0
 15 17  1  0  0  0
 15 18  1  0  0  0
 11 12  1  0  0  0
M  END
> <minimizedAffinity>
-7.81701

> <CNNscore>
0.5621940494

> <CNNaffinity>
5.6283521652

> <CNN_VS>
3.1642260551

> <CNNaffinity_variance>
0.0350139812

$$$$



 34 35  0  0  0  0  0  0  0  0999 V2000
   -9.7892  -11.6646    2.9215 C   0  0  0  0  0  0  0  0  0  0  0  0
   -8.1691   -6.5562    4.2917 C   0  0  0  0  0  0  0  0  0  0  0  0
   -7.2505   -9.0812    3.9821 C   0  0  0  0  0  0  0  0  0  0  0  0
   -8.4042   -8.0989    4.2567 C   0  0  0  0  0  0  0  0  0  0  0  0
   -9.7335   -8.5089    4.4405 C   0  0  0  0  0  0  0  0  0  0  0  0
  -10.1552   -9.7761    4.4328 N   0  0  0  0  0  0  0  0  0  0  0  0
   -7.5999  -10.8259    4.4995 S   0  0  0  0  0  0  0  0  0  0  0  0
   -9.3842  -11.0043    4.2368 C   0  0  0  0  0  0  0  0  0  0  0  0
  -10.8493   -7.4970    4.6680 C   0  0  0  0  0  0  0  0  0  0  0  0
  -11.2019   -6.7761    3.7370 O   0  0  0  0  0  0  0  0  0  0  0  0
  -11.3724   -7.4007    5.7379 O   0  0  0  0  0  0  0  0  0  0  0  0
  -11.0997   -7.9528    6.4442 H   0  0  0  0  0  0  0  0  0  0  0  0
   -7.0061   -5.8399    4.1453 O   0  0  0  0  0  0  0  0  0  0  0  0
   -7.0923   -4.8869    3.1232 C   0  0  0  0  0  0  0  0  0  0  0  0
   -7.5853   -5.2160    1.9190 N   0  0  0  0  0  0  0  0  0  0  0  0
   -6.7113   -3.7324    3.3487 O   0  0  0  0  0  0  0  0  0  0  0  0
   -7.6411   -4.5375    1.2078 H   0  0  0  0  0  0  0  0  0  0  0  0
   -7.8911   -6.1358    1.7470 H   0  0  0  0  0  0  0  0  0  0  0  0
   -9.8569  -13.0763    3.1649 N   0  0  0  0  0  0  0  0  0  0  0  0
  -10.9248  -13.6622    3.5975 C   0  0  0  0  0  0  0  0  0  0  0  0
  -11.8836  -12.7983    3.9070 O   0  0  0  0  0  0  0  0  0  0  0  0
   -9.0557  -13.6226    2.9952 H   0  0  0  0  0  0  0  0  0  0  0  0
  -11.1014  -15.2304    3.6281 C   0  0  0  0  0  0  0  0  0  0  0  0
  -11.7786  -16.0154    4.4678 N   0  0  0  0  0  0  0  0  0  0  0  0
   -8.9006  -17.4036    1.7294 C   0  0  0  0  0  0  0  0  0  0  0  0
   -8.0954  -17.0080    2.7155 C   0  0  0  0  0  0  0  0  0  0  0  0
  -10.1096  -16.8554    1.8899 C   0  0  0  0  0  0  0  0  0  0  0  0
   -8.8173  -16.1746    3.5175 O   0  0  0  0  0  0  0  0  0  0  0  0
  -10.0531  -16.0727    2.9590 C   0  0  0  0  0  0  0  0  0  0  0  0
  -13.4794  -16.4635    5.9415 C   0  0  0  0  0  0  0  0  0  0  0  0
  -12.7192  -15.4373    5.2779 O   0  0  0  0  0  0  0  0  0  0  0  0
   -8.9246  -11.0787    2.0055 C   0  0  0  0  0  0  0  0  0  0  0  0
   -8.5352  -11.7607    0.8215 O   0  0  0  0  0  0  0  0  0  0  0  0
   -7.9947  -12.5315    1.0553 H   0  0  0  0  0  0  0  0  0  0  0  0
 19  1  1  0  0  0
 19 20  1  0  0  0
  1  8  1  0  0  0
  1 32  1  0  0  0
 30 31  1  0  0  0
 25 26  2  0  0  0
 25 27  1  0  0  0
 26 28  1  0  0  0
 27 29  2  0  0  0
  2  4  2  0  0  0
  2 13  1  0  0  0
  3  4  1  0  0  0
  3  7  1  0  0  0
 14 15  1  0  0  0
 14 16  2  0  0  0
 14 13  1  0  0  0
  9  5  1  0  0  0
  9 10  2  0  0  0
  9 11  1  0  0  0
 20 23  1  0  0  0
 20 21  2  0  0  0
  4  5  1  0  0  0
 23 29  1  0  0  0
 23 24  2  0  0  0
  5  6  2  0  0  0
 32 33  1  0  0  0
 24 31  1  0  0  0
  6  8  1  0  0  0
 28 29  1  0  0  0
  7  8  1  0  0  0
 19 22  1  0  0  0
 33 34  1  0  0  0
 15 17  1  0  0  0
 15 18  1  0  0  0
 11 12  1  0  0  0
M  END
> <minimizedAffinity>
-6.77333

> <CNNscore>
0.5257810950

> <CNNaffinity>
5.3317008018

> <CNN_VS>
2.8033075333

> <CNNaffinity_variance>
0.0782932863

$$$$



 34 35  0  0  0  0  0  0  0  0999 V2000
   -9.9959  -11.8943    3.0941 C   0  0  0  0  0  0  0  0  0  0  0  0
   -7.8997   -6.9652    4.4758 C   0  0  0  0  0  0  0  0  0  0  0  0
   -7.2651   -9.5890    4.3075 C   0  0  0  0  0  0  0  0  0  0  0  0
   -8.3126   -8.4704    4.4577 C   0  0  0  0  0  0  0  0  0  0  0  0
   -9.6919   -8.7165    4.5358 C   0  0  0  0  0  0  0  0  0  0  0  0
  -10.2591   -9.9256    4.5222 N   0  0  0  0  0  0  0  0  0  0  0  0
   -7.8610  -11.2626    4.8347 S   0  0  0  0  0  0  0  0  0  0  0  0
   -9.6258  -11.2410    4.4233 C   0  0  0  0  0  0  0  0  0  0  0  0
  -10.6946   -7.5745    4.6417 C   0  0  0  0  0  0  0  0  0  0  0  0
  -10.7956   -6.7789    3.7101 O   0  0  0  0  0  0  0  0  0  0  0  0
  -11.3711   -7.4495    5.6186 O   0  0  0  0  0  0  0  0  0  0  0  0
  -11.2900   -8.0588    6.3258 H   0  0  0  0  0  0  0  0  0  0  0  0
   -6.6518   -6.3945    4.4131 O   0  0  0  0  0  0  0  0  0  0  0  0
   -6.2459   -6.1436    3.0968 C   0  0  0  0  0  0  0  0  0  0  0  0
   -5.2717   -6.8720    2.5294 N   0  0  0  0  0  0  0  0  0  0  0  0
   -6.8036   -5.2418    2.4608 O   0  0  0  0  0  0  0  0  0  0  0  0
   -4.9945   -6.6867    1.6031 H   0  0  0  0  0  0  0  0  0  0  0  0
   -4.8344   -7.5916    3.0395 H   0  0  0  0  0  0  0  0  0  0  0  0
  -10.6855  -13.1129    3.4039 N   0  0  0  0  0  0  0  0  0  0  0  0
  -11.9451  -13.1514    3.6916 C   0  0  0  0  0  0  0  0  0  0  0  0
  -12.4764  -11.9394    3.7925 O   0  0  0  0  0  0  0  0  0  0  0  0
  -10.1778  -13.9563    3.3971 H   0  0  0  0  0  0  0  0  0  0  0  0
  -12.7729  -14.4922    3.7832 C   0  0  0  0  0  0  0  0  0  0  0  0
  -13.6681  -15.0230    2.9486 N   0  0  0  0  0  0  0  0  0  0  0  0
  -12.9992  -15.6560    7.2133 C   0  0  0  0  0  0  0  0  0  0  0  0
  -13.8449  -16.4822    6.5973 C   0  0  0  0  0  0  0  0  0  0  0  0
  -12.4607  -14.8180    6.3214 C   0  0  0  0  0  0  0  0  0  0  0  0
  -13.8477  -16.1468    5.2759 O   0  0  0  0  0  0  0  0  0  0  0  0
  -13.0050  -15.0878    5.1424 C   0  0  0  0  0  0  0  0  0  0  0  0
  -14.7224  -15.2645    0.9248 C   0  0  0  0  0  0  0  0  0  0  0  0
  -13.7219  -14.5436    1.6669 O   0  0  0  0  0  0  0  0  0  0  0  0
   -8.8034  -11.8399    2.3835 C   0  0  0  0  0  0  0  0  0  0  0  0
   -8.6998  -11.0973    1.1767 O   0  0  0  0  0  0  0  0  0  0  0  0
   -9.2538  -11.5089    0.4951 H   0  0  0  0  0  0  0  0  0  0  0  0
 19  1  1  0  0  0
 19 20  1  0  0  0
  1  8  1  0  0  0
  1 32  1  0  0  0
 30 31  1  0  0  0
 25 26  2  0  0  0
 25 27  1  0  0  0
 26 28  1  0  0  0
 27 29  2  0  0  0
  2  4  2  0  0  0
  2 13  1  0  0  0
  3  4  1  0  0  0
  3  7  1  0  0  0
 14 15  1  0  0  0
 14 16  2  0  0  0
 14 13  1  0  0  0
  9  5  1  0  0  0
  9 10  2  0  0  0
  9 11  1  0  0  0
 20 23  1  0  0  0
 20 21  2  0  0  0
  4  5  1  0  0  0
 23 29  1  0  0  0
 23 24  2  0  0  0
  5  6  2  0  0  0
 32 33  1  0  0  0
 24 31  1  0  0  0
  6  8  1  0  0  0
 28 29  1  0  0  0
  7  8  1  0  0  0
 19 22  1  0  0  0
 33 34  1  0  0  0
 15 17  1  0  0  0
 15 18  1  0  0  0
 11 12  1  0  0  0
M  END
> <minimizedAffinity>
-6.49825

> <CNNscore>
0.5153211355

> <CNNaffinity>
5.1914911270

> <CNN_VS>
2.6752851009

> <CNNaffinity_variance>
0.0323105454

$$$$



 34 35  0  0  0  0  0  0  0  0999 V2000
   -8.9532  -10.7732    4.7475 C   0  0  0  0  0  0  0  0  0  0  0  0
  -10.4003  -15.8720    3.1643 C   0  0  0  0  0  0  0  0  0  0  0  0
   -8.7199  -13.8404    2.5608 C   0  0  0  0  0  0  0  0  0  0  0  0
  -10.0265  -14.3567    3.1913 C   0  0  0  0  0  0  0  0  0  0  0  0
  -10.9326  -13.5258    3.8677 C   0  0  0  0  0  0  0  0  0  0  0  0
  -10.7983  -12.2059    4.0212 N   0  0  0  0  0  0  0  0  0  0  0  0
   -8.7088  -12.0185    2.2225 S   0  0  0  0  0  0  0  0  0  0  0  0
   -9.7262  -11.3267    3.5532 C   0  0  0  0  0  0  0  0  0  0  0  0
  -12.1928  -14.0888    4.5124 C   0  0  0  0  0  0  0  0  0  0  0  0
  -13.1935  -14.2606    3.8196 O   0  0  0  0  0  0  0  0  0  0  0  0
  -12.2115  -14.3558    5.6769 O   0  0  0  0  0  0  0  0  0  0  0  0
  -11.4458  -14.2229    6.2004 H   0  0  0  0  0  0  0  0  0  0  0  0
   -9.7362  -16.9320    2.5967 O   0  0  0  0  0  0  0  0  0  0  0  0
  -10.0713  -17.1112    1.2491 C   0  0  0  0  0  0  0  0  0  0  0  0
  -11.3230  -17.4381    0.8918 N   0  0  0  0  0  0  0  0  0  0  0  0
   -9.1955  -16.9578    0.3899 O   0  0  0  0  0  0  0  0  0  0  0  0
  -11.5472  -17.5616   -0.0589 H   0  0  0  0  0  0  0  0  0  0  0  0
  -12.0170  -17.5545    1.5803 H   0  0  0  0  0  0  0  0  0  0  0  0
   -8.1504   -9.6891    4.2609 N   0  0  0  0  0  0  0  0  0  0  0  0
   -8.5148   -8.4522    4.3506 C   0  0  0  0  0  0  0  0  0  0  0  0
   -9.7510   -8.3233    4.8160 O   0  0  0  0  0  0  0  0  0  0  0  0
   -7.2845   -9.8959    3.8405 H   0  0  0  0  0  0  0  0  0  0  0  0
   -7.5471   -7.2399    4.0589 C   0  0  0  0  0  0  0  0  0  0  0  0
   -7.6236   -6.2607    3.1560 N   0  0  0  0  0  0  0  0  0  0  0  0
   -4.1383   -7.1646    5.3024 C   0  0  0  0  0  0  0  0  0  0  0  0
   -4.0852   -8.1854    4.4466 C   0  0  0  0  0  0  0  0  0  0  0  0
   -5.3693   -6.6423    5.3023 C   0  0  0  0  0  0  0  0  0  0  0  0
   -5.3259   -8.3177    3.8973 O   0  0  0  0  0  0  0  0  0  0  0  0
   -6.1093   -7.3677    4.4745 C   0  0  0  0  0  0  0  0  0  0  0  0
   -9.4831   -4.9162    3.1707 C   0  0  0  0  0  0  0  0  0  0  0  0
   -8.8289   -6.0356    2.5460 O   0  0  0  0  0  0  0  0  0  0  0  0
   -8.4311  -11.9198    5.3328 C   0  0  0  0  0  0  0  0  0  0  0  0
   -9.0317  -12.4966    6.4839 O   0  0  0  0  0  0  0  0  0  0  0  0
   -8.9321  -11.8936    7.2371 H   0  0  0  0  0  0  0  0  0  0  0  0
 19  1  1  0  0  0
 19 20  1  0  0  0
  1  8  1  0  0  0
  1 32  1  0  0  0
 30 31  1  0  0  0
 25 26  2  0  0  0
 25 27  1  0  0  0
 26 28  1  0  0  0
 27 29  2  0  0  0
  2  4  2  0  0  0
  2 13  1  0  0  0
  3  4  1  0  0  0
  3  7  1  0  0  0
 14 15  1  0  0  0
 14 16  2  0  0  0
 14 13  1  0  0  0
  9  5  1  0  0  0
  9 10  2  0  0  0
  9 11  1  0  0  0
 20 23  1  0  0  0
 20 21  2  0  0  0
  4  5  1  0  0  0
 23 29  1  0  0  0
 23 24  2  0  0  0
  5  6  2  0  0  0
 32 33  1  0  0  0
 24 31  1  0  0  0
  6  8  1  0  0  0
 28 29  1  0  0  0
  7  8  1  0  0  0
 19 22  1  0  0  0
 33 34  1  0  0  0
 15 17  1  0  0  0
 15 18  1  0  0  0
 11 12  1  0  0  0
M  END
> <minimizedAffinity>
-6.62893

> <CNNscore>
0.4545027912

> <CNNaffinity>
5.3743472099

> <CNN_VS>
2.4426558018

> <CNNaffinity_variance>
0.1160414591

$$$$



 34 35  0  0  0  0  0  0  0  0999 V2000
   -7.4865  -10.7178    0.1262 C   0  0  0  0  0  0  0  0  0  0  0  0
   -9.0333  -12.4955    5.1308 C   0  0  0  0  0  0  0  0  0  0  0  0
   -8.3954  -13.3705    2.6523 C   0  0  0  0  0  0  0  0  0  0  0  0
   -8.9052  -12.2627    3.5926 C   0  0  0  0  0  0  0  0  0  0  0  0
   -9.2357  -10.9728    3.1502 C   0  0  0  0  0  0  0  0  0  0  0  0
   -9.1827  -10.5580    1.8817 N   0  0  0  0  0  0  0  0  0  0  0  0
   -8.8119  -13.1013    0.8668 S   0  0  0  0  0  0  0  0  0  0  0  0
   -8.7832  -11.2984    0.6845 C   0  0  0  0  0  0  0  0  0  0  0  0
   -9.6962   -9.8959    4.1243 C   0  0  0  0  0  0  0  0  0  0  0  0
   -8.8689   -9.3615    4.8599 O   0  0  0  0  0  0  0  0  0  0  0  0
  -10.8465   -9.5773    4.1775 O   0  0  0  0  0  0  0  0  0  0  0  0
  -11.4729   -9.9880    3.6146 H   0  0  0  0  0  0  0  0  0  0  0  0
   -8.7874  -13.6248    5.8732 O   0  0  0  0  0  0  0  0  0  0  0  0
   -9.8046  -14.5784    5.7458 C   0  0  0  0  0  0  0  0  0  0  0  0
  -11.0190  -14.3599    6.2739 N   0  0  0  0  0  0  0  0  0  0  0  0
   -9.5685  -15.6260    5.1328 O   0  0  0  0  0  0  0  0  0  0  0  0
  -11.7266  -15.0376    6.1781 H   0  0  0  0  0  0  0  0  0  0  0  0
  -11.2021  -13.5219    6.7571 H   0  0  0  0  0  0  0  0  0  0  0  0
   -7.7164   -9.3206   -0.1002 N   0  0  0  0  0  0  0  0  0  0  0  0
   -6.9709   -8.3961    0.4101 C   0  0  0  0  0  0  0  0  0  0  0  0
   -6.0709   -8.8835    1.2550 O   0  0  0  0  0  0  0  0  0  0  0  0
   -8.4747   -9.0540   -0.6687 H   0  0  0  0  0  0  0  0  0  0  0  0
   -7.0472   -6.8813   -0.0266 C   0  0  0  0  0  0  0  0  0  0  0  0
   -7.1002   -5.7652    0.7025 N   0  0  0  0  0  0  0  0  0  0  0  0
   -8.6333   -5.8012   -3.1071 C   0  0  0  0  0  0  0  0  0  0  0  0
   -7.9284   -6.8519   -3.5268 C   0  0  0  0  0  0  0  0  0  0  0  0
   -8.4563   -5.6384   -1.7917 C   0  0  0  0  0  0  0  0  0  0  0  0
   -7.2772   -7.3614   -2.4427 O   0  0  0  0  0  0  0  0  0  0  0  0
   -7.5979   -6.5652   -1.3878 C   0  0  0  0  0  0  0  0  0  0  0  0
   -5.3928   -5.3957    2.1904 C   0  0  0  0  0  0  0  0  0  0  0  0
   -6.7521   -5.8389    2.0248 O   0  0  0  0  0  0  0  0  0  0  0  0
   -7.1541  -11.6192   -0.8773 C   0  0  0  0  0  0  0  0  0  0  0  0
   -7.4012  -11.3216   -2.2444 O   0  0  0  0  0  0  0  0  0  0  0  0
   -8.3580  -11.2820   -2.3989 H   0  0  0  0  0  0  0  0  0  0  0  0
 19  1  1  0  0  0
 19 20  1  0  0  0
  1  8  1  0  0  0
  1 32  1  0  0  0
 30 31  1  0  0  0
 25 26  2  0  0  0
 25 27  1  0  0  0
 26 28  1  0  0  0
 27 29  2  0  0  0
  2  4  2  0  0  0
  2 13  1  0  0  0
  3  4  1  0  0  0
  3  7  1  0  0  0
 14 15  1  0  0  0
 14 16  2  0  0  0
 14 13  1  0  0  0
  9  5  1  0  0  0
  9 10  2  0  0  0
  9 11  1  0  0  0
 20 23  1  0  0  0
 20 21  2  0  0  0
  4  5  1  0  0  0
 23 29  1  0  0  0
 23 24  2  0  0  0
  5  6  2  0  0  0
 32 33  1  0  0  0
 24 31  1  0  0  0
  6  8  1  0  0  0
 28 29  1  0  0  0
  7  8  1  0  0  0
 19 22  1  0  0  0
 33 34  1  0  0  0
 15 17  1  0  0  0
 15 18  1  0  0  0
 11 12  1  0  0  0
M  END
> <minimizedAffinity>
-5.45349

> <CNNscore>
0.2921260297

> <CNNaffinity>
4.7665424347

> <CNN_VS>
1.3924311399

> <CNNaffinity_variance>
0.0534498803

$$$$



 34 35  0  0  0  0  0  0  0  0999 V2000
   -8.6503  -11.9136    3.8647 C   0  0  0  0  0  0  0  0  0  0  0  0
   -7.6250   -6.6097    2.6746 C   0  0  0  0  0  0  0  0  0  0  0  0
   -9.2505   -8.1978    4.1413 C   0  0  0  0  0  0  0  0  0  0  0  0
   -8.3176   -7.9842    2.9350 C   0  0  0  0  0  0  0  0  0  0  0  0
   -7.9883   -9.0044    2.0296 C   0  0  0  0  0  0  0  0  0  0  0  0
   -8.4553  -10.2548    2.0773 N   0  0  0  0  0  0  0  0  0  0  0  0
  -10.3648   -9.6704    3.9874 S   0  0  0  0  0  0  0  0  0  0  0  0
   -9.3801  -10.8586    3.0372 C   0  0  0  0  0  0  0  0  0  0  0  0
   -7.0270   -8.7569    0.8741 C   0  0  0  0  0  0  0  0  0  0  0  0
   -7.4711   -8.3455   -0.1958 O   0  0  0  0  0  0  0  0  0  0  0  0
   -5.8573   -8.9641    1.0026 O   0  0  0  0  0  0  0  0  0  0  0  0
   -5.5242   -9.2777    1.8203 H   0  0  0  0  0  0  0  0  0  0  0  0
   -7.7290   -5.4272    3.3659 O   0  0  0  0  0  0  0  0  0  0  0  0
   -8.7649   -4.6176    2.8845 C   0  0  0  0  0  0  0  0  0  0  0  0
   -8.4961   -3.5089    2.1775 N   0  0  0  0  0  0  0  0  0  0  0  0
   -9.9349   -4.9431    3.1163 O   0  0  0  0  0  0  0  0  0  0  0  0
   -9.2325   -2.9471    1.8440 H   0  0  0  0  0  0  0  0  0  0  0  0
   -7.5624   -3.2574    1.9925 H   0  0  0  0  0  0  0  0  0  0  0  0
   -9.4797  -13.0834    3.8774 N   0  0  0  0  0  0  0  0  0  0  0  0
   -9.0147  -14.2695    4.0965 C   0  0  0  0  0  0  0  0  0  0  0  0
   -7.6899  -14.2853    4.1736 O   0  0  0  0  0  0  0  0  0  0  0  0
  -10.4445  -12.9787    3.7123 H   0  0  0  0  0  0  0  0  0  0  0  0
   -9.9330  -15.5244    4.3670 C   0  0  0  0  0  0  0  0  0  0  0  0
  -10.0310  -16.6884    3.7226 N   0  0  0  0  0  0  0  0  0  0  0  0
  -13.2143  -15.2932    5.9004 C   0  0  0  0  0  0  0  0  0  0  0  0
  -12.5248  -14.4046    6.6159 C   0  0  0  0  0  0  0  0  0  0  0  0
  -12.4206  -15.8328    4.9694 C   0  0  0  0  0  0  0  0  0  0  0  0
  -11.2522  -14.3916    6.1271 O   0  0  0  0  0  0  0  0  0  0  0  0
  -11.2104  -15.3141    5.1287 C   0  0  0  0  0  0  0  0  0  0  0  0
   -9.5429  -17.1558    1.5297 C   0  0  0  0  0  0  0  0  0  0  0  0
   -9.0221  -17.0411    2.8664 O   0  0  0  0  0  0  0  0  0  0  0  0
   -8.2878  -11.2105    5.0066 C   0  0  0  0  0  0  0  0  0  0  0  0
   -7.4898  -11.8107    6.0174 O   0  0  0  0  0  0  0  0  0  0  0  0
   -7.9896  -12.5253    6.4421 H   0  0  0  0  0  0  0  0  0  0  0  0
 19  1  1  0  0  0
 19 20  1  0  0  0
  1  8  1  0  0  0
  1 32  1  0  0  0
 30 31  1  0  0  0
 25 26  2  0  0  0
 25 27  1  0  0  0
 26 28  1  0  0  0
 27 29  2  0  0  0
  2  4  2  0  0  0
  2 13  1  0  0  0
  3  4  1  0  0  0
  3  7  1  0  0  0
 14 15  1  0  0  0
 14 16  2  0  0  0
 14 13  1  0  0  0
  9  5  1  0  0  0
  9 10  2  0  0  0
  9 11  1  0  0  0
 20 23  1  0  0  0
 20 21  2  0  0  0
  4  5  1  0  0  0
 23 29  1  0  0  0
 23 24  2  0  0  0
  5  6  2  0  0  0
 32 33  1  0  0  0
 24 31  1  0  0  0
  6  8  1  0  0  0
 28 29  1  0  0  0
  7  8  1  0  0  0
 19 22  1  0  0  0
 33 34  1  0  0  0
 15 17  1  0  0  0
 15 18  1  0  0  0
 11 12  1  0  0  0
M  END
> <minimizedAffinity>
-6.91336

> <CNNscore>
0.2666321993

> <CNNaffinity>
4.3533639908

> <CNN_VS>
1.1607470512

> <CNNaffinity_variance>
0.8566913605

$$$$



 34 35  0  0  0  0  0  0  0  0999 V2000
   -9.1691  -16.0314    2.2341 C   0  0  0  0  0  0  0  0  0  0  0  0
   -9.7053  -10.7694    3.8537 C   0  0  0  0  0  0  0  0  0  0  0  0
   -9.3834  -12.3084    1.6530 C   0  0  0  0  0  0  0  0  0  0  0  0
   -9.2306  -12.0897    3.1696 C   0  0  0  0  0  0  0  0  0  0  0  0
   -8.7113  -13.0631    4.0366 C   0  0  0  0  0  0  0  0  0  0  0  0
   -8.2633  -14.2647    3.6635 N   0  0  0  0  0  0  0  0  0  0  0  0
   -8.3100  -13.6551    0.9686 S   0  0  0  0  0  0  0  0  0  0  0  0
   -8.2035  -14.8526    2.3248 C   0  0  0  0  0  0  0  0  0  0  0  0
   -8.6180  -12.8174    5.5372 C   0  0  0  0  0  0  0  0  0  0  0  0
   -9.5375  -13.1905    6.2626 O   0  0  0  0  0  0  0  0  0  0  0  0
   -7.6668  -12.2651    6.0038 O   0  0  0  0  0  0  0  0  0  0  0  0
   -6.9687  -11.9828    5.4462 H   0  0  0  0  0  0  0  0  0  0  0  0
  -10.2548   -9.6393    3.2988 O   0  0  0  0  0  0  0  0  0  0  0  0
   -9.9716   -8.4880    4.0436 C   0  0  0  0  0  0  0  0  0  0  0  0
   -8.7513   -8.2937    4.5677 N   0  0  0  0  0  0  0  0  0  0  0  0
  -10.8636   -7.6476    4.2073 O   0  0  0  0  0  0  0  0  0  0  0  0
   -8.5636   -7.4804    5.0896 H   0  0  0  0  0  0  0  0  0  0  0  0
   -8.0440   -8.9646    4.4301 H   0  0  0  0  0  0  0  0  0  0  0  0
  -10.3994  -15.6127    2.8405 N   0  0  0  0  0  0  0  0  0  0  0  0
  -11.5236  -15.5930    2.2029 C   0  0  0  0  0  0  0  0  0  0  0  0
  -11.3771  -15.8736    0.9140 O   0  0  0  0  0  0  0  0  0  0  0  0
  -10.3872  -15.3282    3.7829 H   0  0  0  0  0  0  0  0  0  0  0  0
  -12.9186  -15.3843    2.9113 C   0  0  0  0  0  0  0  0  0  0  0  0
  -14.0296  -14.7789    2.4881 N   0  0  0  0  0  0  0  0  0  0  0  0
  -13.2774  -15.8529    6.4922 C   0  0  0  0  0  0  0  0  0  0  0  0
  -12.6501  -14.6777    6.4408 C   0  0  0  0  0  0  0  0  0  0  0  0
  -13.4955  -16.2999    5.2511 C   0  0  0  0  0  0  0  0  0  0  0  0
  -12.4569  -14.3795    5.1245 O   0  0  0  0  0  0  0  0  0  0  0  0
  -12.9615  -15.4224    4.4122 C   0  0  0  0  0  0  0  0  0  0  0  0
  -15.0986  -15.4542    0.5732 C   0  0  0  0  0  0  0  0  0  0  0  0
  -14.1594  -14.5275    1.1482 O   0  0  0  0  0  0  0  0  0  0  0  0
   -8.4012  -17.0928    2.6965 C   0  0  0  0  0  0  0  0  0  0  0  0
   -6.9834  -17.0117    2.7374 O   0  0  0  0  0  0  0  0  0  0  0  0
   -6.6358  -16.9671    1.8329 H   0  0  0  0  0  0  0  0  0  0  0  0
 19  1  1  0  0  0
 19 20  1  0  0  0
  1  8  1  0  0  0
  1 32  1  0  0  0
 30 31  1  0  0  0
 25 26  2  0  0  0
 25 27  1  0  0  0
 26 28  1  0  0  0
 27 29  2  0  0  0
  2  4  2  0  0  0
  2 13  1  0  0  0
  3  4  1  0  0  0
  3  7  1  0  0  0
 14 15  1  0  0  0
 14 16  2  0  0  0
 14 13  1  0  0  0
  9  5  1  0  0  0
  9 10  2  0  0  0
  9 11  1  0  0  0
 20 23  1  0  0  0
 20 21  2  0  0  0
  4  5  1  0  0  0
 23 29  1  0  0  0
 23 24  2  0  0  0
  5  6  2  0  0  0
 32 33  1  0  0  0
 24 31  1  0  0  0
  6  8  1  0  0  0
 28 29  1  0  0  0
  7  8  1  0  0  0
 19 22  1  0  0  0
 33 34  1  0  0  0
 15 17  1  0  0  0
 15 18  1  0  0  0
 11 12  1  0  0  0
M  END
> <minimizedAffinity>
-6.97637

> <CNNscore>
0.2659733891

> <CNNaffinity>
4.9980807304

> <CNN_VS>
1.3293564320

> <CNNaffinity_variance>
0.2554428577

$$$$



 34 35  0  0  0  0  0  0  0  0999 V2000
   -8.7818   -7.8739    3.2669 C   0  0  0  0  0  0  0  0  0  0  0  0
   -9.6198  -13.3150    2.7281 C   0  0  0  0  0  0  0  0  0  0  0  0
   -8.9722  -11.4197    4.5456 C   0  0  0  0  0  0  0  0  0  0  0  0
   -9.0343  -11.9137    3.0885 C   0  0  0  0  0  0  0  0  0  0  0  0
   -8.6246  -11.1341    1.9960 C   0  0  0  0  0  0  0  0  0  0  0  0
   -8.1105   -9.9043    2.0790 N   0  0  0  0  0  0  0  0  0  0  0  0
   -7.7934  -10.0168    4.8218 S   0  0  0  0  0  0  0  0  0  0  0  0
   -7.8567   -9.0882    3.2667 C   0  0  0  0  0  0  0  0  0  0  0  0
   -8.7438  -11.6494    0.5674 C   0  0  0  0  0  0  0  0  0  0  0  0
   -7.7885  -12.2341    0.0609 O   0  0  0  0  0  0  0  0  0  0  0  0
   -9.7498  -11.4840   -0.0555 O   0  0  0  0  0  0  0  0  0  0  0  0
  -10.4750  -11.0377    0.3355 H   0  0  0  0  0  0  0  0  0  0  0  0
  -10.1050  -14.3035    3.5493 O   0  0  0  0  0  0  0  0  0  0  0  0
  -11.3761  -14.0019    4.0530 C   0  0  0  0  0  0  0  0  0  0  0  0
  -12.4014  -13.7550    3.2228 N   0  0  0  0  0  0  0  0  0  0  0  0
  -11.5420  -13.9716    5.2779 O   0  0  0  0  0  0  0  0  0  0  0  0
  -13.2909  -13.5440    3.5882 H   0  0  0  0  0  0  0  0  0  0  0  0
  -12.2640  -13.7850    2.2484 H   0  0  0  0  0  0  0  0  0  0  0  0
   -8.0632   -6.7997    2.6455 N   0  0  0  0  0  0  0  0  0  0  0  0
   -8.5796   -5.6305    2.4527 C   0  0  0  0  0  0  0  0  0  0  0  0
   -9.8671   -5.5892    2.7719 O   0  0  0  0  0  0  0  0  0  0  0  0
   -7.1368   -6.9596    2.3532 H   0  0  0  0  0  0  0  0  0  0  0  0
   -7.7357   -4.3722    2.0102 C   0  0  0  0  0  0  0  0  0  0  0  0
   -7.4968   -3.8642    0.7999 N   0  0  0  0  0  0  0  0  0  0  0  0
   -5.1610   -2.7990    4.0270 C   0  0  0  0  0  0  0  0  0  0  0  0
   -5.0721   -4.0676    4.4271 C   0  0  0  0  0  0  0  0  0  0  0  0
   -6.1088   -2.6892    3.0903 C   0  0  0  0  0  0  0  0  0  0  0  0
   -6.0017   -4.7784    3.7276 O   0  0  0  0  0  0  0  0  0  0  0  0
   -6.6525   -3.8884    2.9315 C   0  0  0  0  0  0  0  0  0  0  0  0
   -7.4959   -4.9108   -1.2422 C   0  0  0  0  0  0  0  0  0  0  0  0
   -8.2968   -4.2614   -0.2381 O   0  0  0  0  0  0  0  0  0  0  0  0
   -9.2425   -7.8398    4.5771 C   0  0  0  0  0  0  0  0  0  0  0  0
  -10.6077   -7.5771    4.8699 O   0  0  0  0  0  0  0  0  0  0  0  0
  -10.8225   -6.6650    4.6191 H   0  0  0  0  0  0  0  0  0  0  0  0
 19  1  1  0  0  0
 19 20  1  0  0  0
  1  8  1  0  0  0
  1 32  1  0  0  0
 30 31  1  0  0  0
 25 26  2  0  0  0
 25 27  1  0  0  0
 26 28  1  0  0  0
 27 29  2  0  0  0
  2  4  2  0  0  0
  2 13  1  0  0  0
  3  4  1  0  0  0
  3  7  1  0  0  0
 14 15  1  0  0  0
 14 16  2  0  0  0
 14 13  1  0  0  0
  9  5  1  0  0  0
  9 10  2  0  0  0
  9 11  1  0  0  0
 20 23  1  0  0  0
 20 21  2  0  0  0
  4  5  1  0  0  0
 23 29  1  0  0  0
 23 24  2  0  0  0
  5  6  2  0  0  0
 32 33  1  0  0  0
 24 31  1  0  0  0
  6  8  1  0  0  0
 28 29  1  0  0  0
  7  8  1  0  0  0
 19 22  1  0  0  0
 33 34  1  0  0  0
 15 17  1  0  0  0
 15 18  1  0  0  0
 11 12  1  0  0  0
M  END
> <minimizedAffinity>
-6.64135

> <CNNscore>
0.2458584160

> <CNNaffinity>
4.8562116623

> <CNN_VS>
1.1939405203

> <CNNaffinity_variance>
0.1407574713

$$$$
