J01


 16 17  0  0  0  0  0  0  0  0999 V2000
   -6.9353  -10.3300    3.4350 O   0  0  0  0  0  0  0  0  0  0  0  0
   -7.0234   -9.3592    4.1512 C   0  0  0  0  0  0  0  0  0  0  0  0
   -6.0375   -8.4534    4.9116 C   0  0  0  0  0  0  0  0  0  0  0  0
   -7.2472   -7.5310    5.1432 C   0  0  0  0  0  0  0  0  0  0  0  0
   -8.0716   -8.5507    4.4890 N   0  0  0  0  0  0  0  0  0  0  0  0
   -7.3523   -6.2941    4.3963 O   0  0  0  0  0  0  0  0  0  0  0  0
   -8.4006   -6.5368    3.4885 C   0  0  0  0  0  0  0  0  0  0  0  0
   -8.9683   -7.9363    3.5462 C   0  0  0  0  0  0  0  0  0  0  0  0
   -8.7895   -5.5908    2.6274 C   0  0  0  0  0  0  0  0  0  0  0  0
  -10.3295   -7.9171    4.1615 C   0  0  0  0  0  0  0  0  0  0  0  0
  -11.1247   -6.9930    4.0769 O   0  0  0  0  0  0  0  0  0  0  0  0
  -10.5670   -9.0700    4.8336 O   0  0  0  0  0  0  0  0  0  0  0  0
  -11.4560   -9.0758    5.2472 H   0  0  0  0  0  0  0  0  0  0  0  0
   -8.2150   -4.2135    2.5871 C   0  0  0  0  0  0  0  0  0  0  0  0
   -9.2200   -3.3121    2.1455 O   0  0  0  0  0  0  0  0  0  0  0  0
  -10.0748   -3.7450    2.3029 H   0  0  0  0  0  0  0  0  0  0  0  0
  1  2  2  0  0  0
  2  3  1  0  0  0
  2  5  1  0  0  0
  3  4  1  0  0  0
  4  5  1  0  0  0
  4  6  1  0  0  0
  5  8  1  0  0  0
  6  7  1  0  0  0
  7  8  1  0  0  0
  7  9  2  0  0  0
  8 10  1  0  0  0
 10 11  2  0  0  0
 10 12  1  0  0  0
 12 13  1  0  0  0
  9 14  1  0  0  0
 14 15  1  0  0  0
 15 16  1  0  0  0
M  END
> <OPENEYE_ISO_SMILES>
C1[C@@H]2N(C1=O)[C@H](/C(=C/CO)/O2)C(=O)O

> <OPENEYE_INCHI>
InChI=1S/C8H9NO5/c10-2-1-4-7(8(12)13)9-5(11)3-6(9)14-4/h1,6-7,10H,2-3H2,(H,12,13)/b4-1-/t6-,7-/m1/s1

> <OPENEYE_INCHIKEY>
HZZVJAQRINQKSD-PBFISZAISA-N

> <FORMULA>
C8H9NO5

> <minimizedAffinity>
-5.85202

> <CNNscore>
0.8130130172

> <CNNaffinity>
3.8085830212

> <CNN_VS>
3.0964276791

> <CNNaffinity_variance>
0.0297907889

$$$$
J01


 16 17  0  0  0  0  0  0  0  0999 V2000
   -6.8646   -6.5225    3.7471 O   0  0  0  0  0  0  0  0  0  0  0  0
   -7.2148   -7.5220    3.1626 C   0  0  0  0  0  0  0  0  0  0  0  0
   -6.5462   -8.5487    2.2302 C   0  0  0  0  0  0  0  0  0  0  0  0
   -7.8278   -9.3790    2.4195 C   0  0  0  0  0  0  0  0  0  0  0  0
   -8.3649   -8.2586    3.1962 N   0  0  0  0  0  0  0  0  0  0  0  0
   -7.7941  -10.5581    3.2606 O   0  0  0  0  0  0  0  0  0  0  0  0
   -8.5226  -10.1775    4.4035 C   0  0  0  0  0  0  0  0  0  0  0  0
   -8.9930   -8.7412    4.3974 C   0  0  0  0  0  0  0  0  0  0  0  0
   -8.7093  -11.0370    5.4105 C   0  0  0  0  0  0  0  0  0  0  0  0
  -10.4714   -8.6822    4.1912 C   0  0  0  0  0  0  0  0  0  0  0  0
  -11.2019   -9.6541    4.0676 O   0  0  0  0  0  0  0  0  0  0  0  0
  -10.8987   -7.3964    4.1571 O   0  0  0  0  0  0  0  0  0  0  0  0
  -11.8678   -7.3364    4.0200 H   0  0  0  0  0  0  0  0  0  0  0  0
   -8.2360  -12.4528    5.3963 C   0  0  0  0  0  0  0  0  0  0  0  0
   -8.2286  -12.9454    6.7285 O   0  0  0  0  0  0  0  0  0  0  0  0
   -8.8270  -12.3781    7.2414 H   0  0  0  0  0  0  0  0  0  0  0  0
  1  2  2  0  0  0
  2  3  1  0  0  0
  2  5  1  0  0  0
  3  4  1  0  0  0
  4  5  1  0  0  0
  4  6  1  0  0  0
  5  8  1  0  0  0
  6  7  1  0  0  0
  7  8  1  0  0  0
  7  9  2  0  0  0
  8 10  1  0  0  0
 10 11  2  0  0  0
 10 12  1  0  0  0
 12 13  1  0  0  0
  9 14  1  0  0  0
 14 15  1  0  0  0
 15 16  1  0  0  0
M  END
> <OPENEYE_ISO_SMILES>
C1[C@@H]2N(C1=O)[C@H](/C(=C/CO)/O2)C(=O)O

> <OPENEYE_INCHI>
InChI=1S/C8H9NO5/c10-2-1-4-7(8(12)13)9-5(11)3-6(9)14-4/h1,6-7,10H,2-3H2,(H,12,13)/b4-1-/t6-,7-/m1/s1

> <OPENEYE_INCHIKEY>
HZZVJAQRINQKSD-PBFISZAISA-N

> <FORMULA>
C8H9NO5

> <minimizedAffinity>
-5.64368

> <CNNscore>
0.7492842078

> <CNNaffinity>
3.8233692646

> <CNN_VS>
2.8647902012

> <CNNaffinity_variance>
0.0910926610

$$$$
J01


 16 17  0  0  0  0  0  0  0  0999 V2000
   -9.2418  -12.5097   -2.4426 O   0  0  0  0  0  0  0  0  0  0  0  0
   -9.0730  -12.7298   -1.2651 C   0  0  0  0  0  0  0  0  0  0  0  0
   -9.0868  -11.8949    0.0284 C   0  0  0  0  0  0  0  0  0  0  0  0
   -9.0447  -13.2472    0.7616 C   0  0  0  0  0  0  0  0  0  0  0  0
   -8.9246  -13.8855   -0.5518 N   0  0  0  0  0  0  0  0  0  0  0  0
  -10.2404  -13.7403    1.4142 O   0  0  0  0  0  0  0  0  0  0  0  0
  -10.6514  -14.8119    0.5990 C   0  0  0  0  0  0  0  0  0  0  0  0
   -9.8068  -15.0190   -0.6370 C   0  0  0  0  0  0  0  0  0  0  0  0
  -11.7401  -15.5244    0.9071 C   0  0  0  0  0  0  0  0  0  0  0  0
   -8.9756  -16.2521   -0.4947 C   0  0  0  0  0  0  0  0  0  0  0  0
   -8.4488  -16.6273    0.5422 O   0  0  0  0  0  0  0  0  0  0  0  0
   -8.8807  -16.9044   -1.6791 O   0  0  0  0  0  0  0  0  0  0  0  0
   -8.3362  -17.7167   -1.6068 H   0  0  0  0  0  0  0  0  0  0  0  0
  -12.5610  -15.3033    2.1342 C   0  0  0  0  0  0  0  0  0  0  0  0
  -13.1667  -14.0210    2.0537 O   0  0  0  0  0  0  0  0  0  0  0  0
  -13.1686  -13.7693    1.1158 H   0  0  0  0  0  0  0  0  0  0  0  0
  1  2  2  0  0  0
  2  3  1  0  0  0
  2  5  1  0  0  0
  3  4  1  0  0  0
  4  5  1  0  0  0
  4  6  1  0  0  0
  5  8  1  0  0  0
  6  7  1  0  0  0
  7  8  1  0  0  0
  7  9  2  0  0  0
  8 10  1  0  0  0
 10 11  2  0  0  0
 10 12  1  0  0  0
 12 13  1  0  0  0
  9 14  1  0  0  0
 14 15  1  0  0  0
 15 16  1  0  0  0
M  END
> <OPENEYE_ISO_SMILES>
C1[C@@H]2N(C1=O)[C@H](/C(=C/CO)/O2)C(=O)O

> <OPENEYE_INCHI>
InChI=1S/C8H9NO5/c10-2-1-4-7(8(12)13)9-5(11)3-6(9)14-4/h1,6-7,10H,2-3H2,(H,12,13)/b4-1-/t6-,7-/m1/s1

> <OPENEYE_INCHIKEY>
HZZVJAQRINQKSD-PBFISZAISA-N

> <FORMULA>
C8H9NO5

> <minimizedAffinity>
-3.80623

> <CNNscore>
0.6726415753

> <CNNaffinity>
3.3098073006

> <CNN_VS>
2.2263140678

> <CNNaffinity_variance>
0.0578468144

$$$$
J01


 16 17  0  0  0  0  0  0  0  0999 V2000
   -6.1747   -6.9486    5.5142 O   0  0  0  0  0  0  0  0  0  0  0  0
   -6.6387   -7.2478    4.4379 C   0  0  0  0  0  0  0  0  0  0  0  0
   -6.0880   -7.8094    3.1144 C   0  0  0  0  0  0  0  0  0  0  0  0
   -7.5627   -7.9969    2.7171 C   0  0  0  0  0  0  0  0  0  0  0  0
   -7.9213   -7.3389    3.9763 N   0  0  0  0  0  0  0  0  0  0  0  0
   -8.1329   -9.3286    2.7058 O   0  0  0  0  0  0  0  0  0  0  0  0
   -8.9972   -9.3344    3.8170 C   0  0  0  0  0  0  0  0  0  0  0  0
   -8.9780   -8.0621    4.6326 C   0  0  0  0  0  0  0  0  0  0  0  0
   -9.7151  -10.4218    4.1167 C   0  0  0  0  0  0  0  0  0  0  0  0
  -10.2453   -7.2979    4.4283 C   0  0  0  0  0  0  0  0  0  0  0  0
  -10.4342   -6.4761    3.5437 O   0  0  0  0  0  0  0  0  0  0  0  0
  -11.1653   -7.6383    5.3637 O   0  0  0  0  0  0  0  0  0  0  0  0
  -12.0047   -7.1449    5.2478 H   0  0  0  0  0  0  0  0  0  0  0  0
   -9.7196  -11.6695    3.2969 C   0  0  0  0  0  0  0  0  0  0  0  0
  -10.7631  -12.5155    3.7583 O   0  0  0  0  0  0  0  0  0  0  0  0
  -11.3919  -11.9510    4.2367 H   0  0  0  0  0  0  0  0  0  0  0  0
  1  2  2  0  0  0
  2  3  1  0  0  0
  2  5  1  0  0  0
  3  4  1  0  0  0
  4  5  1  0  0  0
  4  6  1  0  0  0
  5  8  1  0  0  0
  6  7  1  0  0  0
  7  8  1  0  0  0
  7  9  2  0  0  0
  8 10  1  0  0  0
 10 11  2  0  0  0
 10 12  1  0  0  0
 12 13  1  0  0  0
  9 14  1  0  0  0
 14 15  1  0  0  0
 15 16  1  0  0  0
M  END
> <OPENEYE_ISO_SMILES>
C1[C@@H]2N(C1=O)[C@H](/C(=C/CO)/O2)C(=O)O

> <OPENEYE_INCHI>
InChI=1S/C8H9NO5/c10-2-1-4-7(8(12)13)9-5(11)3-6(9)14-4/h1,6-7,10H,2-3H2,(H,12,13)/b4-1-/t6-,7-/m1/s1

> <OPENEYE_INCHIKEY>
HZZVJAQRINQKSD-PBFISZAISA-N

> <FORMULA>
C8H9NO5

> <minimizedAffinity>
-5.06144

> <CNNscore>
0.6558467746

> <CNNaffinity>
3.7608039379

> <CNN_VS>
2.4665112495

> <CNNaffinity_variance>
0.1105292067

$$$$
J01


 16 17  0  0  0  0  0  0  0  0999 V2000
   -6.6866   -8.8652    1.6264 O   0  0  0  0  0  0  0  0  0  0  0  0
   -7.5518   -9.6950    1.4650 C   0  0  0  0  0  0  0  0  0  0  0  0
   -7.7683  -10.8984    0.5294 C   0  0  0  0  0  0  0  0  0  0  0  0
   -8.9563  -11.2451    1.4439 C   0  0  0  0  0  0  0  0  0  0  0  0
   -8.6840   -9.9997    2.1663 N   0  0  0  0  0  0  0  0  0  0  0  0
   -8.8434  -12.3561    2.3669 O   0  0  0  0  0  0  0  0  0  0  0  0
   -8.7547  -11.7380    3.6286 C   0  0  0  0  0  0  0  0  0  0  0  0
   -8.7308  -10.2274    3.5863 C   0  0  0  0  0  0  0  0  0  0  0  0
   -8.6467  -12.4716    4.7412 C   0  0  0  0  0  0  0  0  0  0  0  0
  -10.0239   -9.6755    4.0915 C   0  0  0  0  0  0  0  0  0  0  0  0
  -10.1458   -8.6288    4.7105 O   0  0  0  0  0  0  0  0  0  0  0  0
  -11.0527  -10.4978    3.7713 O   0  0  0  0  0  0  0  0  0  0  0  0
  -11.9112  -10.1535    4.0969 H   0  0  0  0  0  0  0  0  0  0  0  0
   -8.6725  -13.9642    4.7609 C   0  0  0  0  0  0  0  0  0  0  0  0
   -7.6657  -14.4500    3.8847 O   0  0  0  0  0  0  0  0  0  0  0  0
   -7.0253  -13.7299    3.7654 H   0  0  0  0  0  0  0  0  0  0  0  0
  1  2  2  0  0  0
  2  3  1  0  0  0
  2  5  1  0  0  0
  3  4  1  0  0  0
  4  5  1  0  0  0
  4  6  1  0  0  0
  5  8  1  0  0  0
  6  7  1  0  0  0
  7  8  1  0  0  0
  7  9  2  0  0  0
  8 10  1  0  0  0
 10 11  2  0  0  0
 10 12  1  0  0  0
 12 13  1  0  0  0
  9 14  1  0  0  0
 14 15  1  0  0  0
 15 16  1  0  0  0
M  END
> <OPENEYE_ISO_SMILES>
C1[C@@H]2N(C1=O)[C@H](/C(=C/CO)/O2)C(=O)O

> <OPENEYE_INCHI>
InChI=1S/C8H9NO5/c10-2-1-4-7(8(12)13)9-5(11)3-6(9)14-4/h1,6-7,10H,2-3H2,(H,12,13)/b4-1-/t6-,7-/m1/s1

> <OPENEYE_INCHIKEY>
HZZVJAQRINQKSD-PBFISZAISA-N

> <FORMULA>
C8H9NO5

> <minimizedAffinity>
-4.68790

> <CNNscore>
0.6314699650

> <CNNaffinity>
3.2472434044

> <CNN_VS>
2.0505366325

> <CNNaffinity_variance>
0.1144561917

$$$$
J01


 16 17  0  0  0  0  0  0  0  0999 V2000
  -11.1731  -16.3709    1.7267 O   0  0  0  0  0  0  0  0  0  0  0  0
  -12.2096  -15.7483    1.6899 C   0  0  0  0  0  0  0  0  0  0  0  0
  -13.4039  -15.6462    0.7235 C   0  0  0  0  0  0  0  0  0  0  0  0
  -14.0924  -14.8499    1.8460 C   0  0  0  0  0  0  0  0  0  0  0  0
  -12.8373  -14.9419    2.5966 N   0  0  0  0  0  0  0  0  0  0  0  0
  -15.1467  -15.4750    2.6183 O   0  0  0  0  0  0  0  0  0  0  0  0
  -14.5572  -15.6935    3.8779 C   0  0  0  0  0  0  0  0  0  0  0  0
  -13.1008  -15.2992    3.9652 C   0  0  0  0  0  0  0  0  0  0  0  0
  -15.2554  -16.2577    4.8688 C   0  0  0  0  0  0  0  0  0  0  0  0
  -12.9479  -14.0653    4.7935 C   0  0  0  0  0  0  0  0  0  0  0  0
  -13.0372  -14.0224    6.0115 O   0  0  0  0  0  0  0  0  0  0  0  0
  -12.6968  -12.9898    4.0077 O   0  0  0  0  0  0  0  0  0  0  0  0
  -12.5954  -12.1683    4.5335 H   0  0  0  0  0  0  0  0  0  0  0  0
  -16.6945  -16.6399    4.7616 C   0  0  0  0  0  0  0  0  0  0  0  0
  -17.4571  -15.4744    4.4830 O   0  0  0  0  0  0  0  0  0  0  0  0
  -16.8437  -14.8188    4.1130 H   0  0  0  0  0  0  0  0  0  0  0  0
  1  2  2  0  0  0
  2  3  1  0  0  0
  2  5  1  0  0  0
  3  4  1  0  0  0
  4  5  1  0  0  0
  4  6  1  0  0  0
  5  8  1  0  0  0
  6  7  1  0  0  0
  7  8  1  0  0  0
  7  9  2  0  0  0
  8 10  1  0  0  0
 10 11  2  0  0  0
 10 12  1  0  0  0
 12 13  1  0  0  0
  9 14  1  0  0  0
 14 15  1  0  0  0
 15 16  1  0  0  0
M  END
> <OPENEYE_ISO_SMILES>
C1[C@@H]2N(C1=O)[C@H](/C(=C/CO)/O2)C(=O)O

> <OPENEYE_INCHI>
InChI=1S/C8H9NO5/c10-2-1-4-7(8(12)13)9-5(11)3-6(9)14-4/h1,6-7,10H,2-3H2,(H,12,13)/b4-1-/t6-,7-/m1/s1

> <OPENEYE_INCHIKEY>
HZZVJAQRINQKSD-PBFISZAISA-N

> <FORMULA>
C8H9NO5

> <minimizedAffinity>
-5.68482

> <CNNscore>
0.5732997060

> <CNNaffinity>
3.5098605156

> <CNN_VS>
2.0122020245

> <CNNaffinity_variance>
0.1948309839

$$$$
J01


 16 17  0  0  0  0  0  0  0  0999 V2000
  -11.0271  -14.1136    6.3336 O   0  0  0  0  0  0  0  0  0  0  0  0
   -9.9126  -13.9473    5.8938 C   0  0  0  0  0  0  0  0  0  0  0  0
   -8.6003  -14.7524    5.8749 C   0  0  0  0  0  0  0  0  0  0  0  0
   -8.1075  -13.7006    4.8657 C   0  0  0  0  0  0  0  0  0  0  0  0
   -9.3714  -12.9914    5.0816 N   0  0  0  0  0  0  0  0  0  0  0  0
   -8.0020  -14.0533    3.4645 O   0  0  0  0  0  0  0  0  0  0  0  0
   -9.0582  -13.3465    2.8589 C   0  0  0  0  0  0  0  0  0  0  0  0
   -9.9301  -12.5750    3.8227 C   0  0  0  0  0  0  0  0  0  0  0  0
   -9.2651  -13.4274    1.5404 C   0  0  0  0  0  0  0  0  0  0  0  0
   -9.6851  -11.1082    3.6809 C   0  0  0  0  0  0  0  0  0  0  0  0
   -8.5887  -10.5920    3.5229 O   0  0  0  0  0  0  0  0  0  0  0  0
  -10.8503  -10.4194    3.7533 O   0  0  0  0  0  0  0  0  0  0  0  0
  -10.7101   -9.4530    3.6646 H   0  0  0  0  0  0  0  0  0  0  0  0
   -8.3910  -14.1958    0.6054 C   0  0  0  0  0  0  0  0  0  0  0  0
   -8.5064  -15.5794    0.9052 O   0  0  0  0  0  0  0  0  0  0  0  0
   -9.3405  -15.6937    1.3890 H   0  0  0  0  0  0  0  0  0  0  0  0
  1  2  2  0  0  0
  2  3  1  0  0  0
  2  5  1  0  0  0
  3  4  1  0  0  0
  4  5  1  0  0  0
  4  6  1  0  0  0
  5  8  1  0  0  0
  6  7  1  0  0  0
  7  8  1  0  0  0
  7  9  2  0  0  0
  8 10  1  0  0  0
 10 11  2  0  0  0
 10 12  1  0  0  0
 12 13  1  0  0  0
  9 14  1  0  0  0
 14 15  1  0  0  0
 15 16  1  0  0  0
M  END
> <OPENEYE_ISO_SMILES>
C1[C@@H]2N(C1=O)[C@H](/C(=C/CO)/O2)C(=O)O

> <OPENEYE_INCHI>
InChI=1S/C8H9NO5/c10-2-1-4-7(8(12)13)9-5(11)3-6(9)14-4/h1,6-7,10H,2-3H2,(H,12,13)/b4-1-/t6-,7-/m1/s1

> <OPENEYE_INCHIKEY>
HZZVJAQRINQKSD-PBFISZAISA-N

> <FORMULA>
C8H9NO5

> <minimizedAffinity>
-4.95483

> <CNNscore>
0.5596193671

> <CNNaffinity>
3.3939681053

> <CNN_VS>
1.8993302584

> <CNNaffinity_variance>
0.0661483258

$$$$
J01


 16 17  0  0  0  0  0  0  0  0999 V2000
  -10.8889   -9.9337    3.9688 O   0  0  0  0  0  0  0  0  0  0  0  0
   -9.7672   -9.7111    4.3632 C   0  0  0  0  0  0  0  0  0  0  0  0
   -8.6110  -10.5496    4.9382 C   0  0  0  0  0  0  0  0  0  0  0  0
   -7.7588   -9.2809    4.7598 C   0  0  0  0  0  0  0  0  0  0  0  0
   -8.9817   -8.5937    4.3365 N   0  0  0  0  0  0  0  0  0  0  0  0
   -6.7907   -9.2193    3.6838 O   0  0  0  0  0  0  0  0  0  0  0  0
   -7.3581   -8.3090    2.7720 C   0  0  0  0  0  0  0  0  0  0  0  0
   -8.7264   -7.8005    3.1634 C   0  0  0  0  0  0  0  0  0  0  0  0
   -6.7227   -7.9938    1.6386 C   0  0  0  0  0  0  0  0  0  0  0  0
   -8.6441   -6.3715    3.5914 C   0  0  0  0  0  0  0  0  0  0  0  0
   -7.6327   -5.8175    3.9958 O   0  0  0  0  0  0  0  0  0  0  0  0
   -9.8511   -5.7663    3.4727 O   0  0  0  0  0  0  0  0  0  0  0  0
   -9.8182   -4.8267    3.7515 H   0  0  0  0  0  0  0  0  0  0  0  0
   -5.3702   -8.5077    1.2708 C   0  0  0  0  0  0  0  0  0  0  0  0
   -4.4612   -8.1898    2.3150 O   0  0  0  0  0  0  0  0  0  0  0  0
   -4.9929   -8.0311    3.1120 H   0  0  0  0  0  0  0  0  0  0  0  0
  1  2  2  0  0  0
  2  3  1  0  0  0
  2  5  1  0  0  0
  3  4  1  0  0  0
  4  5  1  0  0  0
  4  6  1  0  0  0
  5  8  1  0  0  0
  6  7  1  0  0  0
  7  8  1  0  0  0
  7  9  2  0  0  0
  8 10  1  0  0  0
 10 11  2  0  0  0
 10 12  1  0  0  0
 12 13  1  0  0  0
  9 14  1  0  0  0
 14 15  1  0  0  0
 15 16  1  0  0  0
M  END
> <OPENEYE_ISO_SMILES>
C1[C@@H]2N(C1=O)[C@H](/C(=C/CO)/O2)C(=O)O

> <OPENEYE_INCHI>
InChI=1S/C8H9NO5/c10-2-1-4-7(8(12)13)9-5(11)3-6(9)14-4/h1,6-7,10H,2-3H2,(H,12,13)/b4-1-/t6-,7-/m1/s1

> <OPENEYE_INCHIKEY>
HZZVJAQRINQKSD-PBFISZAISA-N

> <FORMULA>
C8H9NO5

> <minimizedAffinity>
-4.46896

> <CNNscore>
0.5081943870

> <CNNaffinity>
3.4823067188

> <CNN_VS>
1.7696887255

> <CNNaffinity_variance>
0.0472456478

$$$$
J01


 16 17  0  0  0  0  0  0  0  0999 V2000
  -12.7951  -13.1153    4.2097 O   0  0  0  0  0  0  0  0  0  0  0  0
  -12.2392  -14.1801    4.3528 C   0  0  0  0  0  0  0  0  0  0  0  0
  -12.4632  -15.6197    3.8547 C   0  0  0  0  0  0  0  0  0  0  0  0
  -11.0643  -15.9094    4.4266 C   0  0  0  0  0  0  0  0  0  0  0  0
  -11.0549  -14.5349    4.9341 N   0  0  0  0  0  0  0  0  0  0  0  0
   -9.9469  -16.0818    3.5208 O   0  0  0  0  0  0  0  0  0  0  0  0
   -9.1829  -14.9134    3.7024 C   0  0  0  0  0  0  0  0  0  0  0  0
   -9.7881  -13.9108    4.6578 C   0  0  0  0  0  0  0  0  0  0  0  0
   -8.0480  -14.7279    3.0202 C   0  0  0  0  0  0  0  0  0  0  0  0
   -9.0112  -13.8778    5.9334 C   0  0  0  0  0  0  0  0  0  0  0  0
   -8.3627  -14.8104    6.3842 O   0  0  0  0  0  0  0  0  0  0  0  0
   -9.1235  -12.6663    6.5307 O   0  0  0  0  0  0  0  0  0  0  0  0
   -8.6216  -12.6253    7.3721 H   0  0  0  0  0  0  0  0  0  0  0  0
   -7.4671  -15.7320    2.0805 C   0  0  0  0  0  0  0  0  0  0  0  0
   -6.3046  -16.2932    2.6732 O   0  0  0  0  0  0  0  0  0  0  0  0
   -6.3741  -16.1392    3.6294 H   0  0  0  0  0  0  0  0  0  0  0  0
  1  2  2  0  0  0
  2  3  1  0  0  0
  2  5  1  0  0  0
  3  4  1  0  0  0
  4  5  1  0  0  0
  4  6  1  0  0  0
  5  8  1  0  0  0
  6  7  1  0  0  0
  7  8  1  0  0  0
  7  9  2  0  0  0
  8 10  1  0  0  0
 10 11  2  0  0  0
 10 12  1  0  0  0
 12 13  1  0  0  0
  9 14  1  0  0  0
 14 15  1  0  0  0
 15 16  1  0  0  0
M  END
> <OPENEYE_ISO_SMILES>
C1[C@@H]2N(C1=O)[C@H](/C(=C/CO)/O2)C(=O)O

> <OPENEYE_INCHI>
InChI=1S/C8H9NO5/c10-2-1-4-7(8(12)13)9-5(11)3-6(9)14-4/h1,6-7,10H,2-3H2,(H,12,13)/b4-1-/t6-,7-/m1/s1

> <OPENEYE_INCHIKEY>
HZZVJAQRINQKSD-PBFISZAISA-N

> <FORMULA>
C8H9NO5

> <minimizedAffinity>
-5.59664

> <CNNscore>
0.4988920391

> <CNNaffinity>
3.3508429527

> <CNN_VS>
1.6717088223

> <CNNaffinity_variance>
0.1042373031

$$$$
